65253
  -OEChem-09111618423D

 28 29  0     1  0  0  0  0  0999 V2000
   -4.9099    0.2939   -0.3698 O   0  0  0  0  0  0  0  0  0  0  0  0
   -3.1806   -0.3373    1.6048 O   0  0  0  0  0  0  0  0  0  0  0  0
    1.3472    2.5120    0.5091 O   0  0  0  0  0  0  0  0  0  0  0  0
    0.4914   -2.0638   -0.2021 N   0  0  0  0  0  0  0  0  0  0  0  0
   -0.4839    0.4877    0.3504 N   0  0  0  0  0  0  0  0  0  0  0  0
    2.7188   -1.1292   -0.2772 N   0  0  0  0  0  0  0  0  0  0  0  0
    3.1508    1.1603    0.0786 N   0  0  0  0  0  0  0  0  0  0  0  0
    4.8845   -0.3630   -0.3744 N   0  0  0  0  0  0  0  0  0  0  0  0
   -0.9347   -1.9481   -0.0300 C   0  0  0  0  0  0  0  0  0  0  0  0
   -1.2998   -0.5155    0.2615 C   0  0  0  0  0  0  0  0  0  0  0  0
    1.3600   -0.9987   -0.1085 C   0  0  0  0  0  0  0  0  0  0  0  0
    0.8527    0.2245    0.1603 C   0  0  0  0  0  0  0  0  0  0  0  0
   -2.7449   -0.2271    0.4680 C   0  0  0  0  0  0  0  0  0  0  0  0
   -3.5534    0.1381   -0.7567 C   0  0  2  0  0  0  0  0  0  0  0  0
    1.7987    1.3953    0.2645 C   0  0  0  0  0  0  0  0  0  0  0  0
    3.5641   -0.0524   -0.1786 C   0  0  0  0  0  0  0  0  0  0  0  0
   -3.0609    1.4233   -1.4000 C   0  0  0  0  0  0  0  0  0  0  0  0
   -1.2643   -2.5767    0.8029 H   0  0  0  0  0  0  0  0  0  0  0  0
   -1.4487   -2.2708   -0.9405 H   0  0  0  0  0  0  0  0  0  0  0  0
    0.8965   -2.9710   -0.4051 H   0  0  0  0  0  0  0  0  0  0  0  0
   -3.5091   -0.6931   -1.4669 H   0  0  0  0  0  0  0  0  0  0  0  0
    3.0680   -2.0597   -0.4776 H   0  0  0  0  0  0  0  0  0  0  0  0
   -2.0613    1.3041   -1.8285 H   0  0  0  0  0  0  0  0  0  0  0  0
   -3.7425    1.7391   -2.1970 H   0  0  0  0  0  0  0  0  0  0  0  0
   -3.0236    2.2398   -0.6700 H   0  0  0  0  0  0  0  0  0  0  0  0
   -4.9717    1.0779    0.2023 H   0  0  0  0  0  0  0  0  0  0  0  0
    5.1809   -1.3121   -0.5738 H   0  0  0  0  0  0  0  0  0  0  0  0
    5.6042    0.3499   -0.3267 H   0  0  0  0  0  0  0  0  0  0  0  0
  1 14  1  0  0  0  0
  1 26  1  0  0  0  0
  2 13  2  0  0  0  0
  3 15  2  0  0  0  0
  4  9  1  0  0  0  0
  4 11  1  0  0  0  0
  4 20  1  0  0  0  0
  5 10  2  0  0  0  0
  5 12  1  0  0  0  0
  6 11  1  0  0  0  0
  6 16  1  0  0  0  0
  6 22  1  0  0  0  0
  7 15  1  0  0  0  0
  7 16  2  0  0  0  0
  8 16  1  0  0  0  0
  8 27  1  0  0  0  0
  8 28  1  0  0  0  0
  9 10  1  0  0  0  0
  9 18  1  0  0  0  0
  9 19  1  0  0  0  0
 10 13  1  0  0  0  0
 11 12  2  0  0  0  0
 12 15  1  0  0  0  0
 13 14  1  0  0  0  0
 14 17  1  0  0  0  0
 14 21  1  0  0  0  0
 17 23  1  0  0  0  0
 17 24  1  0  0  0  0
 17 25  1  0  0  0  0
M  END
> <PUBCHEM_COMPOUND_CID>
65253

> <PUBCHEM_CONFORMER_RMSD>
0.6

> <PUBCHEM_CONFORMER_DIVERSEORDER>
1
18
13
7
14
6
2
17
8
15
3
5
9
10
16
11
12
4

> <PUBCHEM_MMFF94_PARTIAL_CHARGES>
21
1 -0.68
10 0.39
11 0.2
12 0.19
13 0.51
14 0.34
15 0.77
16 0.55
2 -0.57
20 0.4
22 0.4
26 0.4
27 0.4
28 0.4
3 -0.57
4 -0.87
5 -0.62
6 -0.55
7 -0.66
8 -0.85
9 0.43

> <PUBCHEM_EFFECTIVE_ROTOR_COUNT>
2.4

> <PUBCHEM_PHARMACOPHORE_FEATURES>
12
1 1 acceptor
1 1 donor
1 2 acceptor
1 3 acceptor
1 4 cation
1 4 donor
1 5 acceptor
1 6 donor
1 7 donor
1 8 donor
6 4 5 9 10 11 12 rings
6 6 7 11 12 15 16 rings

> <PUBCHEM_HEAVY_ATOM_COUNT>
17

> <PUBCHEM_ATOM_DEF_STEREO_COUNT>
1

> <PUBCHEM_ATOM_UDEF_STEREO_COUNT>
0

> <PUBCHEM_BOND_DEF_STEREO_COUNT>
0

> <PUBCHEM_BOND_UDEF_STEREO_COUNT>
0

> <PUBCHEM_ISOTOPIC_ATOM_COUNT>
0

> <PUBCHEM_COMPONENT_COUNT>
1

> <PUBCHEM_CACTVS_TAUTO_COUNT>
187

> <PUBCHEM_CONFORMER_ID>
0000FEE500000001

> <PUBCHEM_MMFF94_ENERGY>
44.6115

> <PUBCHEM_FEATURE_SELFOVERLAP>
61.098

> <PUBCHEM_SHAPE_FINGERPRINT>
10608611 8 18336825411023515385
11401426 45 18272927228714696642
11471102 20 18413388743798642644
11543360 7 15051728733235387018
11578080 2 13552871295765894471
12236239 1 17203328901377865689
12403259 226 18337948016980514349
12403259 415 18409162242650544485
124424 183 18259984864232396834
12500047 106 17530683221055536435
12654215 9 18408599236835875788
12730499 353 18261389989339050951
13464514 151 18046058259978610157
13862211 1 18342176618869559838
13922767 16 18411979174165728192
14251717 144 18343581828297960887
14911166 2 18413672409266800662
14993402 34 18272371966636781614
15099037 51 18411419510031197398
15219456 202 18333733524502414409
15279308 100 18408880763167499772
15653759 3 17676210195046201857
16945 1 18342462529908878498
18175812 5 18040999570145525151
18186145 218 18272937141066588698
18219364 16 18410022047789738659
200 152 17918269849023102805
20233049 118 18261109660601760676
20645477 70 18340485547962707766
21029758 11 18202282498581559912
21501502 16 18125445469136489262
21524375 3 18408885161314718263
21639500 275 18272361005790571369
221357 26 18340478976963269541
231179 274 18260543415986397542
23402539 116 17703512099645760064
23402655 69 18270673174190991325
23493267 7 17675923183666937641
23557571 272 17749399182765944267
23559900 14 18129669720624317580
25 1 18337103475933304247
2748010 2 18125726935412417626
3060560 45 18343577430314864118
3071541 158 18335423495412868540
34934 24 18340479050251766402
3524813 1 18261101963767470701
4072396 5 18265034878511086490
69090 78 18341608256750735519
74978 22 18270962478481489250
77492 1 17275388690022782147
81228 2 16609687970463484307

> <PUBCHEM_SHAPE_MULTIPOLES>
307.34
7.8
1.87
0.93
0.58
0.18
-0.05
1.13
1.27
-0.52
0.04
0.84
0.15
0.84

> <PUBCHEM_SHAPE_SELFOVERLAP>
656.057

> <PUBCHEM_SHAPE_VOLUME>
167.2

> <PUBCHEM_COORDINATE_TYPE>
2
5
10

$$$$
