6452574
  -OEChem-09111619083D

 56 59  0     1  0  0  0  0  0999 V2000
   -4.2442   -2.1854    1.1357 O   0  0  0  0  0  0  0  0  0  0  0  0
   -5.2747    0.6345   -1.0069 O   0  0  0  0  0  0  0  0  0  0  0  0
    6.5848    0.0627    0.2920 O   0  0  0  0  0  0  0  0  0  0  0  0
   -2.1403    0.4390   -0.1109 C   0  0  1  0  0  0  0  0  0  0  0  0
   -1.3496   -0.8487    0.1991 C   0  0  2  0  0  0  0  0  0  0  0  0
    0.0926   -0.8137   -0.3175 C   0  0  1  0  0  0  0  0  0  0  0  0
    0.8380    0.4051    0.3003 C   0  0  1  0  0  0  0  0  0  0  0  0
    2.3228    0.5071   -0.2341 C   0  0  2  0  0  0  0  0  0  0  0  0
   -3.5091    0.0391    0.4832 C   0  0  2  0  0  0  0  0  0  0  0  0
   -1.4405    1.5957    0.6161 C   0  0  0  0  0  0  0  0  0  0  0  0
    0.0294    1.7262    0.1820 C   0  0  0  0  0  0  0  0  0  0  0  0
   -2.2744   -1.9661   -0.2809 C   0  0  0  0  0  0  0  0  0  0  0  0
   -3.6827   -1.4388    0.0622 C   0  0  1  0  0  0  0  0  0  0  0  0
    0.8277   -2.1161    0.0339 C   0  0  0  0  0  0  0  0  0  0  0  0
    2.9984   -0.8715   -0.2349 C   0  0  0  0  0  0  0  0  0  0  0  0
   -2.2543    0.7549   -1.6246 C   0  0  0  0  0  0  0  0  0  0  0  0
    3.1156    1.4627    0.7070 C   0  0  0  0  0  0  0  0  0  0  0  0
    2.3137   -2.0205   -0.1003 C   0  0  0  0  0  0  0  0  0  0  0  0
    2.3644    1.0605   -1.6789 C   0  0  0  0  0  0  0  0  0  0  0  0
    4.5014   -0.9031   -0.3887 C   0  0  0  0  0  0  0  0  0  0  0  0
   -4.6485    0.8948    0.0192 C   0  0  0  0  0  0  0  0  0  0  0  0
    4.6275    1.4539    0.4854 C   0  0  0  0  0  0  0  0  0  0  0  0
    5.1924    0.0409    0.5899 C   0  0  2  0  0  0  0  0  0  0  0  0
   -4.9905    2.0867    0.8717 C   0  0  0  0  0  0  0  0  0  0  0  0
   -1.2871   -0.9559    1.2955 H   0  0  0  0  0  0  0  0  0  0  0  0
    0.0837   -0.7225   -1.4095 H   0  0  0  0  0  0  0  0  0  0  0  0
    0.9014    0.2002    1.3815 H   0  0  0  0  0  0  0  0  0  0  0  0
   -3.4847    0.0889    1.5809 H   0  0  0  0  0  0  0  0  0  0  0  0
   -1.4748    1.4393    1.7019 H   0  0  0  0  0  0  0  0  0  0  0  0
   -1.9523    2.5444    0.4214 H   0  0  0  0  0  0  0  0  0  0  0  0
    0.0521    2.1009   -0.8453 H   0  0  0  0  0  0  0  0  0  0  0  0
    0.4960    2.5013    0.8004 H   0  0  0  0  0  0  0  0  0  0  0  0
   -2.1732   -2.1088   -1.3626 H   0  0  0  0  0  0  0  0  0  0  0  0
   -2.0519   -2.9183    0.2111 H   0  0  0  0  0  0  0  0  0  0  0  0
   -4.3386   -1.5820   -0.8026 H   0  0  0  0  0  0  0  0  0  0  0  0
    0.4667   -2.9182   -0.6211 H   0  0  0  0  0  0  0  0  0  0  0  0
    0.6020   -2.4220    1.0630 H   0  0  0  0  0  0  0  0  0  0  0  0
   -2.7704    1.7087   -1.7840 H   0  0  0  0  0  0  0  0  0  0  0  0
   -1.2798    0.8429   -2.1122 H   0  0  0  0  0  0  0  0  0  0  0  0
   -2.8105   -0.0121   -2.1728 H   0  0  0  0  0  0  0  0  0  0  0  0
    2.9280    1.1860    1.7536 H   0  0  0  0  0  0  0  0  0  0  0  0
    2.7594    2.4934    0.5924 H   0  0  0  0  0  0  0  0  0  0  0  0
    2.8504   -2.9662   -0.0873 H   0  0  0  0  0  0  0  0  0  0  0  0
    2.0347    2.1035   -1.7223 H   0  0  0  0  0  0  0  0  0  0  0  0
    3.3744    1.0445   -2.1021 H   0  0  0  0  0  0  0  0  0  0  0  0
    1.7300    0.4788   -2.3555 H   0  0  0  0  0  0  0  0  0  0  0  0
    4.8991   -1.9163   -0.2449 H   0  0  0  0  0  0  0  0  0  0  0  0
    4.7721   -0.6388   -1.4188 H   0  0  0  0  0  0  0  0  0  0  0  0
    4.8789    1.8911   -0.4888 H   0  0  0  0  0  0  0  0  0  0  0  0
    5.1156    2.0986    1.2268 H   0  0  0  0  0  0  0  0  0  0  0  0
    5.0760   -0.3251    1.6174 H   0  0  0  0  0  0  0  0  0  0  0  0
   -5.1116   -1.7952    1.3382 H   0  0  0  0  0  0  0  0  0  0  0  0
   -5.1747    1.7667    1.9002 H   0  0  0  0  0  0  0  0  0  0  0  0
   -4.1816    2.8179    0.8418 H   0  0  0  0  0  0  0  0  0  0  0  0
   -5.9011    2.5572    0.4894 H   0  0  0  0  0  0  0  0  0  0  0  0
    6.9194   -0.8455    0.3854 H   0  0  0  0  0  0  0  0  0  0  0  0
  1 13  1  0  0  0  0
  1 52  1  0  0  0  0
  2 21  2  0  0  0  0
  3 23  1  0  0  0  0
  3 56  1  0  0  0  0
  4  5  1  0  0  0  0
  4  9  1  0  0  0  0
  4 10  1  0  0  0  0
  4 16  1  0  0  0  0
  5  6  1  0  0  0  0
  5 12  1  0  0  0  0
  5 25  1  0  0  0  0
  6  7  1  0  0  0  0
  6 14  1  0  0  0  0
  6 26  1  0  0  0  0
  7  8  1  0  0  0  0
  7 11  1  0  0  0  0
  7 27  1  0  0  0  0
  8 15  1  0  0  0  0
  8 17  1  0  0  0  0
  8 19  1  0  0  0  0
  9 13  1  0  0  0  0
  9 21  1  0  0  0  0
  9 28  1  0  0  0  0
 10 11  1  0  0  0  0
 10 29  1  0  0  0  0
 10 30  1  0  0  0  0
 11 31  1  0  0  0  0
 11 32  1  0  0  0  0
 12 13  1  0  0  0  0
 12 33  1  0  0  0  0
 12 34  1  0  0  0  0
 13 35  1  0  0  0  0
 14 18  1  0  0  0  0
 14 36  1  0  0  0  0
 14 37  1  0  0  0  0
 15 18  2  0  0  0  0
 15 20  1  0  0  0  0
 16 38  1  0  0  0  0
 16 39  1  0  0  0  0
 16 40  1  0  0  0  0
 17 22  1  0  0  0  0
 17 41  1  0  0  0  0
 17 42  1  0  0  0  0
 18 43  1  0  0  0  0
 19 44  1  0  0  0  0
 19 45  1  0  0  0  0
 19 46  1  0  0  0  0
 20 23  1  0  0  0  0
 20 47  1  0  0  0  0
 20 48  1  0  0  0  0
 21 24  1  0  0  0  0
 22 23  1  0  0  0  0
 22 49  1  0  0  0  0
 22 50  1  0  0  0  0
 23 51  1  0  0  0  0
 24 53  1  0  0  0  0
 24 54  1  0  0  0  0
 24 55  1  0  0  0  0
M  END
> <PUBCHEM_COMPOUND_CID>
6452574

> <PUBCHEM_CONFORMER_RMSD>
0.6

> <PUBCHEM_CONFORMER_DIVERSEORDER>
1
2

> <PUBCHEM_MMFF94_PARTIAL_CHARGES>
16
1 -0.68
13 0.28
14 0.14
15 -0.28
18 -0.29
2 -0.57
20 0.14
21 0.45
23 0.28
24 0.06
3 -0.68
43 0.15
52 0.4
56 0.4
8 0.14
9 0.06

> <PUBCHEM_EFFECTIVE_ROTOR_COUNT>
3

> <PUBCHEM_PHARMACOPHORE_FEATURES>
9
1 1 acceptor
1 1 donor
1 2 acceptor
1 3 acceptor
1 3 donor
5 4 5 9 12 13 rings
6 4 5 6 7 10 11 rings
6 6 7 8 14 15 18 rings
6 8 15 17 20 22 23 rings

> <PUBCHEM_HEAVY_ATOM_COUNT>
24

> <PUBCHEM_ATOM_DEF_STEREO_COUNT>
8

> <PUBCHEM_ATOM_UDEF_STEREO_COUNT>
0

> <PUBCHEM_BOND_DEF_STEREO_COUNT>
0

> <PUBCHEM_BOND_UDEF_STEREO_COUNT>
0

> <PUBCHEM_ISOTOPIC_ATOM_COUNT>
0

> <PUBCHEM_COMPONENT_COUNT>
1

> <PUBCHEM_CACTVS_TAUTO_COUNT>
3

> <PUBCHEM_CONFORMER_ID>
0062755E00000001

> <PUBCHEM_MMFF94_ENERGY>
73.8769

> <PUBCHEM_FEATURE_SELFOVERLAP>
45.768

> <PUBCHEM_SHAPE_FINGERPRINT>
10062212 137 18335699476936412403
11089746 13 17847053381048380600
11132069 177 18333733528755209677
11405975 8 18408042909463464897
11578080 2 17025422297944714926
12011746 2 18342178865295165556
12236239 1 18412543180454231410
12403259 415 18271805791490014424
12403814 3 17821445755717324357
12616971 3 17167870776294431829
12633257 1 17168145662838646418
12788726 201 17130993049172783817
13140716 1 18337674109741863571
13214271 11 18343301479114248319
13224815 77 18410012151926586562
13583140 156 17988640830794280137
13675066 3 18409451422487068498
14341114 176 18335707096276954370
14790565 3 18412831312794275000
15196674 1 18411982485495933522
15375358 24 18202848751074337093
15536298 74 18343586231045621094
15788980 27 18411417340803635434
17349148 13 18040998466560398210
1813 80 17167868555785758108
200 152 17989200443505371399
20645477 56 18187077326379243157
20645477 70 17989204811197117478
20715895 44 18190173486909917789
21033648 29 18130213948202983368
21267235 1 18339369655123773859
21279426 13 18269840817591323414
21421861 104 18042679499517224874
21709351 56 18260543458951836774
23402539 116 18201431506482570708
23557571 272 18272938266569910686
23559900 14 18342737429702180608
26918003 58 18411697686240948552
335352 9 18413107243453061702
34797466 226 15697997491603067584
34934 24 18412540981631721779
350125 39 18410576189266661764
3545911 37 18409167692626043279
3680242 22 18337389323461042386
4073 2 18260834825655247378
4214541 1 18411700997607966777
474 4 18113344114995494222
5104073 3 18409167705569273586
542803 24 18040718073783759164
59755656 215 18340208501529445238
67856867 119 18188776179456106156
9709674 26 18200318701672797647

> <PUBCHEM_SHAPE_MULTIPOLES>
476.3
11.84
2.26
1.05
3.72
0.54
0.33
-2.2
-1.56
-1.07
-0.36
-0.3
-0.24
0.32

> <PUBCHEM_SHAPE_SELFOVERLAP>
1015.247

> <PUBCHEM_SHAPE_VOLUME>
264.1

> <PUBCHEM_COORDINATE_TYPE>
2
5
10

$$$$
