440623
  -OEChem-09111619153D

 43 46  0     1  0  0  0  0  0999 V2000
   -5.0839   -1.3837   -0.2513 O   0  0  0  0  0  0  0  0  0  0  0  0
    4.5960   -2.1583   -0.1550 O   0  0  0  0  0  0  0  0  0  0  0  0
    5.6206    0.3645    0.3909 O   0  0  0  0  0  0  0  0  0  0  0  0
   -2.2672    0.6494   -0.3125 C   0  0  2  0  0  0  0  0  0  0  0  0
   -2.8307   -0.6500    0.2999 C   0  0  2  0  0  0  0  0  0  0  0  0
   -0.8032    0.8531    0.0735 C   0  0  1  0  0  0  0  0  0  0  0  0
    0.0266   -0.3274   -0.5207 C   0  0  2  0  0  0  0  0  0  0  0  0
   -2.0846   -1.8231   -0.3263 C   0  0  0  0  0  0  0  0  0  0  0  0
   -3.3057    1.7084    0.0391 C   0  0  0  0  0  0  0  0  0  0  0  0
   -0.5643   -1.7024   -0.1034 C   0  0  0  0  0  0  0  0  0  0  0  0
   -0.2297    2.1729   -0.4440 C   0  0  0  0  0  0  0  0  0  0  0  0
   -4.2825   -0.4703   -0.1049 C   0  0  0  0  0  0  0  0  0  0  0  0
   -4.6317    0.9989   -0.2744 C   0  0  0  0  0  0  0  0  0  0  0  0
   -2.8124   -0.7377    1.8372 C   0  0  0  0  0  0  0  0  0  0  0  0
    1.5165   -0.1510   -0.2414 C   0  0  0  0  0  0  0  0  0  0  0  0
    1.1871    2.3663    0.0891 C   0  0  0  0  0  0  0  0  0  0  0  0
    2.0525    1.1327    0.0016 C   0  0  0  0  0  0  0  0  0  0  0  0
    2.4031   -1.2406   -0.3055 C   0  0  0  0  0  0  0  0  0  0  0  0
    3.4327    1.2848    0.2233 C   0  0  0  0  0  0  0  0  0  0  0  0
    3.7731   -1.0740   -0.0921 C   0  0  0  0  0  0  0  0  0  0  0  0
    4.2878    0.1876    0.1769 C   0  0  0  0  0  0  0  0  0  0  0  0
   -2.2967    0.5636   -1.4127 H   0  0  0  0  0  0  0  0  0  0  0  0
   -0.7083    0.8578    1.1671 H   0  0  0  0  0  0  0  0  0  0  0  0
   -0.0633   -0.2764   -1.6171 H   0  0  0  0  0  0  0  0  0  0  0  0
   -2.2873   -1.8666   -1.4045 H   0  0  0  0  0  0  0  0  0  0  0  0
   -2.4425   -2.7751    0.0843 H   0  0  0  0  0  0  0  0  0  0  0  0
   -3.1986    2.6187   -0.5588 H   0  0  0  0  0  0  0  0  0  0  0  0
   -3.2514    1.9946    1.0949 H   0  0  0  0  0  0  0  0  0  0  0  0
   -0.3299   -1.8984    0.9502 H   0  0  0  0  0  0  0  0  0  0  0  0
   -0.0906   -2.5076   -0.6768 H   0  0  0  0  0  0  0  0  0  0  0  0
   -0.8436    3.0238   -0.1290 H   0  0  0  0  0  0  0  0  0  0  0  0
   -0.2197    2.1747   -1.5416 H   0  0  0  0  0  0  0  0  0  0  0  0
   -4.9354    1.1724   -1.3107 H   0  0  0  0  0  0  0  0  0  0  0  0
   -5.4212    1.2973    0.4185 H   0  0  0  0  0  0  0  0  0  0  0  0
   -1.8013   -0.7177    2.2521 H   0  0  0  0  0  0  0  0  0  0  0  0
   -3.3778    0.0728    2.3093 H   0  0  0  0  0  0  0  0  0  0  0  0
   -3.2805   -1.6729    2.1681 H   0  0  0  0  0  0  0  0  0  0  0  0
    1.1331    2.6638    1.1443 H   0  0  0  0  0  0  0  0  0  0  0  0
    1.6581    3.1901   -0.4607 H   0  0  0  0  0  0  0  0  0  0  0  0
    2.0411   -2.2398   -0.5308 H   0  0  0  0  0  0  0  0  0  0  0  0
    3.8335    2.2748    0.4319 H   0  0  0  0  0  0  0  0  0  0  0  0
    5.5069   -1.8617    0.0156 H   0  0  0  0  0  0  0  0  0  0  0  0
    5.7927    1.3066    0.5608 H   0  0  0  0  0  0  0  0  0  0  0  0
  1 12  2  0  0  0  0
  2 20  1  0  0  0  0
  2 42  1  0  0  0  0
  3 21  1  0  0  0  0
  3 43  1  0  0  0  0
  4  5  1  0  0  0  0
  4  6  1  0  0  0  0
  4  9  1  0  0  0  0
  4 22  1  0  0  0  0
  5  8  1  0  0  0  0
  5 12  1  0  0  0  0
  5 14  1  0  0  0  0
  6  7  1  0  0  0  0
  6 11  1  0  0  0  0
  6 23  1  0  0  0  0
  7 10  1  0  0  0  0
  7 15  1  0  0  0  0
  7 24  1  0  0  0  0
  8 10  1  0  0  0  0
  8 25  1  0  0  0  0
  8 26  1  0  0  0  0
  9 13  1  0  0  0  0
  9 27  1  0  0  0  0
  9 28  1  0  0  0  0
 10 29  1  0  0  0  0
 10 30  1  0  0  0  0
 11 16  1  0  0  0  0
 11 31  1  0  0  0  0
 11 32  1  0  0  0  0
 12 13  1  0  0  0  0
 13 33  1  0  0  0  0
 13 34  1  0  0  0  0
 14 35  1  0  0  0  0
 14 36  1  0  0  0  0
 14 37  1  0  0  0  0
 15 17  1  0  0  0  0
 15 18  2  0  0  0  0
 16 17  1  0  0  0  0
 16 38  1  0  0  0  0
 16 39  1  0  0  0  0
 17 19  2  0  0  0  0
 18 20  1  0  0  0  0
 18 40  1  0  0  0  0
 19 21  1  0  0  0  0
 19 41  1  0  0  0  0
 20 21  2  0  0  0  0
M  END
> <PUBCHEM_COMPOUND_CID>
440623

> <PUBCHEM_CONFORMER_RMSD>
0.6

> <PUBCHEM_CONFORMER_DIVERSEORDER>
1

> <PUBCHEM_MMFF94_PARTIAL_CHARGES>
18
1 -0.57
12 0.45
13 0.06
15 -0.14
16 0.14
17 -0.14
18 -0.15
19 -0.15
2 -0.53
20 0.08
21 0.08
3 -0.53
40 0.15
41 0.15
42 0.45
43 0.45
5 0.06
7 0.14

> <PUBCHEM_EFFECTIVE_ROTOR_COUNT>
1.2

> <PUBCHEM_PHARMACOPHORE_FEATURES>
7
1 1 acceptor
1 2 donor
1 3 donor
5 4 5 9 12 13 rings
6 15 17 18 19 20 21 rings
6 4 5 6 7 8 10 rings
6 6 7 11 15 16 17 rings

> <PUBCHEM_HEAVY_ATOM_COUNT>
21

> <PUBCHEM_ATOM_DEF_STEREO_COUNT>
4

> <PUBCHEM_ATOM_UDEF_STEREO_COUNT>
0

> <PUBCHEM_BOND_DEF_STEREO_COUNT>
0

> <PUBCHEM_BOND_UDEF_STEREO_COUNT>
0

> <PUBCHEM_ISOTOPIC_ATOM_COUNT>
0

> <PUBCHEM_COMPONENT_COUNT>
1

> <PUBCHEM_CACTVS_TAUTO_COUNT>
62

> <PUBCHEM_CONFORMER_ID>
0006B92F00000001

> <PUBCHEM_MMFF94_ENERGY>
63.2294

> <PUBCHEM_FEATURE_SELFOVERLAP>
35.624

> <PUBCHEM_SHAPE_FINGERPRINT>
10 15 18337942498718062792
10967382 1 18411418423203900950
11132069 177 18413669115021479764
12011746 2 18409163303454459557
12107183 9 17835804092906026074
12236239 1 17489588973777146646
12251169 10 18341895229163940940
12403259 226 18339919411565383325
12403260 363 18341611551354453541
12596602 18 16988843920994232858
13140716 1 18124318460742826185
13544653 18 18408891723950555712
13675066 3 18260833721389378114
13862211 1 18410568491967738734
14115302 16 17386016082284217814
14386348 63 18407760343812980648
14790565 3 17760933244373122172
14866123 147 17406561307742809562
15099037 51 18408601453128645461
15196674 1 18411418388627871708
15375358 24 18412262817905757518
15442244 35 18411982468136709804
15536298 74 18342457049535721028
15788980 27 18261114066874137840
15848702 151 17988368069968915031
16945 1 18193567893794335237
17349148 13 17775567550347314407
17492 89 18267021846088474031
17804303 29 18411140242409363421
1813 80 17385723591175446316
19141452 34 18342738537445020911
19591789 44 18338232665674507646
200 152 18060134345360423093
20028762 73 18130785728599713703
20645477 70 18341612581993890302
21029758 11 18341890788368561137
21033648 29 17917697003132898345
21267235 1 18411144649145938390
21279426 13 18192708951784974965
21421861 104 17969211236587877706
21682296 61 18057894541475539134
221490 88 18263369259632781361
23184049 59 18343024384534687686
23402539 116 18342730819599546365
23559900 14 18412258437150112720
26918003 58 17894629275168037514
3004659 81 18187647960577808934
335352 9 18338798901705100757
34934 24 18410849962992217494
350125 39 18411421730877721693
351380 180 18410572894635978855
3545911 37 18343020012743289838
4214541 1 18411136922462843069
4921388 177 16081381790339846377
5104073 3 18412262813547448482
69090 78 18342736338474564783
9709674 26 18335986475357025843

> <PUBCHEM_SHAPE_MULTIPOLES>
414.56
10.1
2.26
0.83
3.11
0.32
0.28
-1.92
0.53
0.24
-0.15
-0.47
-0.12
0.38

> <PUBCHEM_SHAPE_SELFOVERLAP>
910.725

> <PUBCHEM_SHAPE_VOLUME>
223.9

> <PUBCHEM_COORDINATE_TYPE>
2
5
10

$$$$
