93078
  -OEChem-09111623413D

 36 36  0     1  0  0  0  0  0999 V2000
    1.0225    0.4643    1.3550 O   0  0  0  0  0  0  0  0  0  0  0  0
    1.1240   -3.1214   -0.9141 O   0  0  0  0  0  0  0  0  0  0  0  0
   -0.3851   -4.0421    0.4951 O   0  0  0  0  0  0  0  0  0  0  0  0
    4.6739    1.2192    1.3603 O   0  0  0  0  0  0  0  0  0  0  0  0
    4.1395   -0.1835   -0.3449 O   0  0  0  0  0  0  0  0  0  0  0  0
    0.3101   -0.6628   -0.5425 N   0  0  0  0  0  0  0  0  0  0  0  0
    0.7894    2.3093   -1.1855 N   0  0  0  0  0  0  0  0  0  0  0  0
   -0.4859   -1.6505    0.1472 C   0  0  1  0  0  0  0  0  0  0  0  0
   -1.9492   -1.5995   -0.3110 C   0  0  0  0  0  0  0  0  0  0  0  0
    1.7487    1.2680   -0.8150 C   0  0  2  0  0  0  0  0  0  0  0  0
   -2.5865   -0.2475   -0.0977 C   0  0  0  0  0  0  0  0  0  0  0  0
    1.0086    0.3277    0.1332 C   0  0  0  0  0  0  0  0  0  0  0  0
    2.9634    1.9187   -0.1526 C   0  0  0  0  0  0  0  0  0  0  0  0
    0.0751   -3.0496   -0.0598 C   0  0  0  0  0  0  0  0  0  0  0  0
   -3.2299    0.0184    1.1006 C   0  0  0  0  0  0  0  0  0  0  0  0
   -2.5162    0.7030   -1.1039 C   0  0  0  0  0  0  0  0  0  0  0  0
   -3.8185    1.2675    1.2979 C   0  0  0  0  0  0  0  0  0  0  0  0
   -3.1048    1.9521   -0.9064 C   0  0  0  0  0  0  0  0  0  0  0  0
    3.9771    0.8744    0.2495 C   0  0  0  0  0  0  0  0  0  0  0  0
   -3.7560    2.2343    0.2946 C   0  0  0  0  0  0  0  0  0  0  0  0
   -0.4287   -1.4569    1.2253 H   0  0  0  0  0  0  0  0  0  0  0  0
   -2.5368   -2.3651    0.2135 H   0  0  0  0  0  0  0  0  0  0  0  0
   -2.0204   -1.8678   -1.3746 H   0  0  0  0  0  0  0  0  0  0  0  0
    2.0582    0.7236   -1.7145 H   0  0  0  0  0  0  0  0  0  0  0  0
    0.3773   -0.7229   -1.5544 H   0  0  0  0  0  0  0  0  0  0  0  0
    2.6607    2.4712    0.7459 H   0  0  0  0  0  0  0  0  0  0  0  0
    3.4571    2.6200   -0.8347 H   0  0  0  0  0  0  0  0  0  0  0  0
   -3.2813   -0.7274    1.8886 H   0  0  0  0  0  0  0  0  0  0  0  0
   -2.0177    0.4918   -2.0455 H   0  0  0  0  0  0  0  0  0  0  0  0
    0.4480    2.7889   -0.3535 H   0  0  0  0  0  0  0  0  0  0  0  0
   -0.0208    1.8906   -1.6383 H   0  0  0  0  0  0  0  0  0  0  0  0
   -4.3249    1.4876    2.2332 H   0  0  0  0  0  0  0  0  0  0  0  0
   -3.0566    2.7047   -1.6880 H   0  0  0  0  0  0  0  0  0  0  0  0
   -4.2141    3.2069    0.4482 H   0  0  0  0  0  0  0  0  0  0  0  0
    1.4495   -4.0409   -1.0190 H   0  0  0  0  0  0  0  0  0  0  0  0
    5.3191    0.5265    1.6175 H   0  0  0  0  0  0  0  0  0  0  0  0
  1 12  2  0  0  0  0
  2 14  1  0  0  0  0
  2 35  1  0  0  0  0
  3 14  2  0  0  0  0
  4 19  1  0  0  0  0
  4 36  1  0  0  0  0
  5 19  2  0  0  0  0
  6  8  1  0  0  0  0
  6 12  1  0  0  0  0
  6 25  1  0  0  0  0
  7 10  1  0  0  0  0
  7 30  1  0  0  0  0
  7 31  1  0  0  0  0
  8  9  1  0  0  0  0
  8 14  1  0  0  0  0
  8 21  1  0  0  0  0
  9 11  1  0  0  0  0
  9 22  1  0  0  0  0
  9 23  1  0  0  0  0
 10 12  1  0  0  0  0
 10 13  1  0  0  0  0
 10 24  1  0  0  0  0
 11 15  2  0  0  0  0
 11 16  1  0  0  0  0
 13 19  1  0  0  0  0
 13 26  1  0  0  0  0
 13 27  1  0  0  0  0
 15 17  1  0  0  0  0
 15 28  1  0  0  0  0
 16 18  2  0  0  0  0
 16 29  1  0  0  0  0
 17 20  2  0  0  0  0
 17 32  1  0  0  0  0
 18 20  1  0  0  0  0
 18 33  1  0  0  0  0
 20 34  1  0  0  0  0
M  END
> <PUBCHEM_COMPOUND_CID>
93078

> <PUBCHEM_CONFORMER_RMSD>
0.8

> <PUBCHEM_CONFORMER_DIVERSEORDER>
1
31
28
77
57
19
124
86
29
98
64
58
122
37
129
45
44
46
7
88
94
20
55
127
34
119
48
15
97
49
91
87
116
69
105
23
125
42
90
79
76
109
38
103
10
62
40
104
110
80
8
63
52
9
120
66
61
43
65
54
115
102
47
5
99
30
53
107
13
75
92
96
112
21
14
111
60
68
26
59
83
56
93
67
128
70
3
118
78
36
101
41
106
11
89
35
2
17
4
108
12
81
27
95
32
39
73
74
121
117
18
113
22
123
51
72
16
84
24
82
71
25
6
50
33
126
100
130
85
114

> <PUBCHEM_MMFF94_PARTIAL_CHARGES>
30
1 -0.57
10 0.33
11 -0.14
12 0.57
13 0.06
14 0.66
15 -0.15
16 -0.15
17 -0.15
18 -0.15
19 0.66
2 -0.65
20 -0.15
25 0.37
28 0.15
29 0.15
3 -0.57
30 0.36
31 0.36
32 0.15
33 0.15
34 0.15
35 0.5
36 0.5
4 -0.65
5 -0.57
6 -0.73
7 -0.99
8 0.36
9 0.14

> <PUBCHEM_EFFECTIVE_ROTOR_COUNT>
8

> <PUBCHEM_PHARMACOPHORE_FEATURES>
11
1 1 acceptor
1 2 acceptor
1 3 acceptor
1 4 acceptor
1 5 acceptor
1 6 donor
1 7 cation
1 7 donor
3 2 3 14 anion
3 4 5 19 anion
6 11 15 16 17 18 20 rings

> <PUBCHEM_HEAVY_ATOM_COUNT>
20

> <PUBCHEM_ATOM_DEF_STEREO_COUNT>
2

> <PUBCHEM_ATOM_UDEF_STEREO_COUNT>
0

> <PUBCHEM_BOND_DEF_STEREO_COUNT>
0

> <PUBCHEM_BOND_UDEF_STEREO_COUNT>
0

> <PUBCHEM_ISOTOPIC_ATOM_COUNT>
0

> <PUBCHEM_COMPONENT_COUNT>
1

> <PUBCHEM_CACTVS_TAUTO_COUNT>
2

> <PUBCHEM_CONFORMER_ID>
00016B9600000001

> <PUBCHEM_MMFF94_ENERGY>
36.8438

> <PUBCHEM_FEATURE_SELFOVERLAP>
55.941

> <PUBCHEM_SHAPE_FINGERPRINT>
10382601 240 18190465952206220385
1100329 8 16463331960531099820
11370993 70 18342171176633981032
121448 382 18199733890599265367
12422481 6 18045758128075215154
12500047 106 18270958072356824544
12633257 1 17386873689018238049
12788726 201 17685499045524780714
13140716 1 18337389323018313451
13544592 145 18271816696649173950
13583140 156 16950549017509644584
14251751 93 18409726291872721211
15042514 8 18048037668608599507
15309172 13 18335137609351549581
18186145 218 18272661138263393668
19784866 9 18199192797571058785
20510252 161 18197779019107408195
20671657 1 18196379109066965015
212916 134 18271229586966759544
21524375 3 18342741849065285615
21731228 192 18410298033708424481
23402539 116 18054501680488684415
23419403 2 17027384887271496974
23598291 2 17824825783299453756
305870 269 18410575050561939819
3091708 16 9121475342296436403
350125 39 18411144649378300251
352729 6 18121226642899653607
58807428 26 18409165489355403794
633830 44 18060421279056327572
6992083 37 18043244837192725084
7226269 152 18060697274124247992
7364860 26 18195813959837158439
79837 15 18336831982350365779
81228 2 17691677205492580587
9862522 239 18188752990431497436

> <PUBCHEM_SHAPE_MULTIPOLES>
372.28
7.44
3.67
1.17
3.64
4.13
-0.15
-5.95
-1.99
-0.05
0.39
-0.23
-0.39
0.29

> <PUBCHEM_SHAPE_SELFOVERLAP>
764.589

> <PUBCHEM_SHAPE_VOLUME>
211.8

> <PUBCHEM_COORDINATE_TYPE>
2
5
10

$$$$
