66414
  -OEChem-09111620213D

 48 51  0     1  0  0  0  0  0999 V2000
    5.3258    1.6124    0.2298 O   0  0  0  0  0  0  0  0  0  0  0  0
   -4.5098    1.7027   -0.4056 O   0  0  0  0  0  0  0  0  0  0  0  0
   -5.3660   -0.8243    0.3640 O   0  0  0  0  0  0  0  0  0  0  0  0
    3.0262    0.7287    0.1210 C   0  0  1  0  0  0  0  0  0  0  0  0
    2.5289   -0.6573   -0.3369 C   0  0  2  0  0  0  0  0  0  0  0  0
    1.0773   -0.9118    0.0681 C   0  0  1  0  0  0  0  0  0  0  0  0
    0.1731    0.1564   -0.6187 C   0  0  2  0  0  0  0  0  0  0  0  0
    4.4856    0.6423   -0.3650 C   0  0  2  0  0  0  0  0  0  0  0  0
    2.1756    1.7958   -0.5786 C   0  0  0  0  0  0  0  0  0  0  0  0
    3.6194   -1.6059    0.1531 C   0  0  0  0  0  0  0  0  0  0  0  0
    0.6712    1.5947   -0.3130 C   0  0  0  0  0  0  0  0  0  0  0  0
    4.9170   -0.7907    0.0034 C   0  0  0  0  0  0  0  0  0  0  0  0
    0.5912   -2.3061   -0.3318 C   0  0  0  0  0  0  0  0  0  0  0  0
    2.9815    0.9619    1.6528 C   0  0  0  0  0  0  0  0  0  0  0  0
   -1.3028   -0.0943   -0.3209 C   0  0  0  0  0  0  0  0  0  0  0  0
   -0.8086   -2.5459    0.2257 C   0  0  0  0  0  0  0  0  0  0  0  0
   -1.7534   -1.3847    0.0347 C   0  0  0  0  0  0  0  0  0  0  0  0
   -2.2600    0.9236   -0.4790 C   0  0  0  0  0  0  0  0  0  0  0  0
   -3.1211   -1.6081    0.2726 C   0  0  0  0  0  0  0  0  0  0  0  0
   -3.6167    0.6855   -0.2487 C   0  0  0  0  0  0  0  0  0  0  0  0
   -4.0472   -0.5788    0.1319 C   0  0  0  0  0  0  0  0  0  0  0  0
   -4.7873    2.5038    0.7412 C   0  0  0  0  0  0  0  0  0  0  0  0
    2.5647   -0.6968   -1.4386 H   0  0  0  0  0  0  0  0  0  0  0  0
    0.9810   -0.8297    1.1584 H   0  0  0  0  0  0  0  0  0  0  0  0
    0.2694    0.0222   -1.7074 H   0  0  0  0  0  0  0  0  0  0  0  0
    4.5379    0.7722   -1.4535 H   0  0  0  0  0  0  0  0  0  0  0  0
    2.3427    1.7552   -1.6630 H   0  0  0  0  0  0  0  0  0  0  0  0
    2.4749    2.8014   -0.2595 H   0  0  0  0  0  0  0  0  0  0  0  0
    3.6584   -2.5264   -0.4381 H   0  0  0  0  0  0  0  0  0  0  0  0
    3.4648   -1.8901    1.1998 H   0  0  0  0  0  0  0  0  0  0  0  0
    0.4364    1.8552    0.7261 H   0  0  0  0  0  0  0  0  0  0  0  0
    0.1373    2.3210   -0.9367 H   0  0  0  0  0  0  0  0  0  0  0  0
    5.5038   -0.8200    0.9284 H   0  0  0  0  0  0  0  0  0  0  0  0
    5.5499   -1.2071   -0.7882 H   0  0  0  0  0  0  0  0  0  0  0  0
    1.2612   -3.0850    0.0487 H   0  0  0  0  0  0  0  0  0  0  0  0
    0.5796   -2.4013   -1.4253 H   0  0  0  0  0  0  0  0  0  0  0  0
    3.3530    1.9630    1.9011 H   0  0  0  0  0  0  0  0  0  0  0  0
    1.9704    0.8914    2.0623 H   0  0  0  0  0  0  0  0  0  0  0  0
    3.5986    0.2451    2.2036 H   0  0  0  0  0  0  0  0  0  0  0  0
   -0.7346   -2.7448    1.3025 H   0  0  0  0  0  0  0  0  0  0  0  0
   -1.2240   -3.4443   -0.2467 H   0  0  0  0  0  0  0  0  0  0  0  0
    6.2348    1.4307   -0.0639 H   0  0  0  0  0  0  0  0  0  0  0  0
   -1.9644    1.9203   -0.7941 H   0  0  0  0  0  0  0  0  0  0  0  0
   -3.4634   -2.5978    0.5684 H   0  0  0  0  0  0  0  0  0  0  0  0
   -5.8694   -0.0131    0.1782 H   0  0  0  0  0  0  0  0  0  0  0  0
   -3.8841    3.0300    1.0661 H   0  0  0  0  0  0  0  0  0  0  0  0
   -5.1785    1.8906    1.5592 H   0  0  0  0  0  0  0  0  0  0  0  0
   -5.5436    3.2443    0.4668 H   0  0  0  0  0  0  0  0  0  0  0  0
  1  8  1  0  0  0  0
  1 42  1  0  0  0  0
  2 20  1  0  0  0  0
  2 22  1  0  0  0  0
  3 21  1  0  0  0  0
  3 45  1  0  0  0  0
  4  5  1  0  0  0  0
  4  8  1  0  0  0  0
  4  9  1  0  0  0  0
  4 14  1  0  0  0  0
  5  6  1  0  0  0  0
  5 10  1  0  0  0  0
  5 23  1  0  0  0  0
  6  7  1  0  0  0  0
  6 13  1  0  0  0  0
  6 24  1  0  0  0  0
  7 11  1  0  0  0  0
  7 15  1  0  0  0  0
  7 25  1  0  0  0  0
  8 12  1  0  0  0  0
  8 26  1  0  0  0  0
  9 11  1  0  0  0  0
  9 27  1  0  0  0  0
  9 28  1  0  0  0  0
 10 12  1  0  0  0  0
 10 29  1  0  0  0  0
 10 30  1  0  0  0  0
 11 31  1  0  0  0  0
 11 32  1  0  0  0  0
 12 33  1  0  0  0  0
 12 34  1  0  0  0  0
 13 16  1  0  0  0  0
 13 35  1  0  0  0  0
 13 36  1  0  0  0  0
 14 37  1  0  0  0  0
 14 38  1  0  0  0  0
 14 39  1  0  0  0  0
 15 17  1  0  0  0  0
 15 18  2  0  0  0  0
 16 17  1  0  0  0  0
 16 40  1  0  0  0  0
 16 41  1  0  0  0  0
 17 19  2  0  0  0  0
 18 20  1  0  0  0  0
 18 43  1  0  0  0  0
 19 21  1  0  0  0  0
 19 44  1  0  0  0  0
 20 21  2  0  0  0  0
 22 46  1  0  0  0  0
 22 47  1  0  0  0  0
 22 48  1  0  0  0  0
M  END
> <PUBCHEM_COMPOUND_CID>
66414

> <PUBCHEM_CONFORMER_RMSD>
0.6

> <PUBCHEM_CONFORMER_DIVERSEORDER>
1

> <PUBCHEM_MMFF94_PARTIAL_CHARGES>
17
1 -0.68
15 -0.14
16 0.14
17 -0.14
18 -0.15
19 -0.15
2 -0.36
20 0.08
21 0.08
22 0.28
3 -0.53
42 0.4
43 0.15
44 0.15
45 0.45
7 0.14
8 0.28

> <PUBCHEM_EFFECTIVE_ROTOR_COUNT>
2.4

> <PUBCHEM_PHARMACOPHORE_FEATURES>
8
1 1 acceptor
1 1 donor
1 2 acceptor
1 3 donor
5 4 5 8 10 12 rings
6 15 17 18 19 20 21 rings
6 4 5 6 7 9 11 rings
6 6 7 13 15 16 17 rings

> <PUBCHEM_HEAVY_ATOM_COUNT>
22

> <PUBCHEM_ATOM_DEF_STEREO_COUNT>
5

> <PUBCHEM_ATOM_UDEF_STEREO_COUNT>
0

> <PUBCHEM_BOND_DEF_STEREO_COUNT>
0

> <PUBCHEM_BOND_UDEF_STEREO_COUNT>
0

> <PUBCHEM_ISOTOPIC_ATOM_COUNT>
0

> <PUBCHEM_COMPONENT_COUNT>
1

> <PUBCHEM_CACTVS_TAUTO_COUNT>
9

> <PUBCHEM_CONFORMER_ID>
0001036E00000001

> <PUBCHEM_MMFF94_ENERGY>
84.6707

> <PUBCHEM_FEATURE_SELFOVERLAP>
40.695

> <PUBCHEM_SHAPE_FINGERPRINT>
10411042 1 17185594612062396887
10646746 165 18412263943118565207
10967382 1 18409165476792430630
11595378 159 16733257941791846589
12011746 2 18411141337958255534
12107183 9 17976537217579940499
12236239 1 17846501447928621159
12251169 10 18261672678831540550
12390115 104 18341910566729765569
12403259 226 18197494237248531201
12403259 415 18273212023332005233
12403260 363 18337950194655586191
12500047 106 18342171223978750554
12507560 40 18412262852191590791
12788726 201 17846505790325499208
13140716 1 18335981948134708227
13583140 156 17417523743277018463
13675066 3 18343299292501095348
14178342 30 17978772821594600914
14341114 176 18408329899294351355
14790565 3 18408329895142250796
14866123 147 17334223321144721714
15042514 8 18119817060946631723
15196674 1 18409449171897799206
15256400 18 18409731750712733973
15536298 74 18412545413990479086
15788980 27 17632856412671002693
1601671 61 18334859411640802652
16945 1 18121492724861105894
17349148 13 18410849988719778015
1813 80 16732984223821017308
19591789 44 18264204725483167110
200 152 18130783478041169807
21033648 29 18130777984182036193
21065198 57 18411136965206599266
21267235 1 18335430083613106079
21279426 13 18268996388640530926
21304253 335 18335144215269915556
21421861 104 17823403926066097922
23402539 116 18343013385112847855
23559900 14 18341050723088639190
3004659 81 18260832567008766974
335352 9 18337953381595303038
34934 24 18336823182631684606
350125 39 18409733993318710573
3545911 37 18411702118810578830
3680242 22 18189896409805391842
4214541 1 18409167705827599213
474 4 18337674122737190633
495365 180 17346024667445593506
5104073 3 18335420144910701099
6328613 192 18408892854186610684
633830 44 18343016649282893671
69090 78 18340766034912180991
77779 3 18409167722870272846
9709674 26 18337678606208813830

> <PUBCHEM_SHAPE_MULTIPOLES>
435.14
10.85
2.53
0.85
2.04
0.2
0.2
-3.73
1.31
1.04
0.17
-0.26
-0.22
0.07

> <PUBCHEM_SHAPE_SELFOVERLAP>
943.576

> <PUBCHEM_SHAPE_VOLUME>
238

> <PUBCHEM_COORDINATE_TYPE>
2
5
10

$$$$
