9963687
  -OEChem-09111623503D

 68 71  0     1  0  0  0  0  0999 V2000
    3.7990    3.1520    0.0726 O   0  0  0  0  0  0  0  0  0  0  0  0
    5.7043   -0.1251   -2.4736 O   0  0  0  0  0  0  0  0  0  0  0  0
   -6.7540    0.5758   -2.7221 O   0  0  0  0  0  0  0  0  0  0  0  0
   -7.4801    0.8303   -0.5855 O   0  0  0  0  0  0  0  0  0  0  0  0
   -0.4712    0.7645    0.4011 C   0  0  2  0  0  0  0  0  0  0  0  0
   -1.2328   -0.5154    0.8083 C   0  0  1  0  0  0  0  0  0  0  0  0
    1.0283    0.6899    0.7096 C   0  0  1  0  0  0  0  0  0  0  0  0
    1.6394   -0.5145   -0.0756 C   0  0  1  0  0  0  0  0  0  0  0  0
    3.1944   -0.6324    0.1448 C   0  0  2  0  0  0  0  0  0  0  0  0
   -2.6681   -0.0815    0.4224 C   0  0  2  0  0  0  0  0  0  0  0  0
    3.8379    0.7337   -0.2720 C   0  0  1  0  0  0  0  0  0  0  0  0
   -0.6680   -1.6797   -0.0171 C   0  0  0  0  0  0  0  0  0  0  0  0
    0.8526   -1.8290    0.1743 C   0  0  0  0  0  0  0  0  0  0  0  0
   -1.3004    1.8874    1.0170 C   0  0  0  0  0  0  0  0  0  0  0  0
    1.7406    1.9984    0.3516 C   0  0  0  0  0  0  0  0  0  0  0  0
   -2.7517    1.3828    0.9137 C   0  0  0  0  0  0  0  0  0  0  0  0
    3.2572    1.9138    0.5303 C   0  0  2  0  0  0  0  0  0  0  0  0
    3.7872   -1.7412   -0.7705 C   0  0  0  0  0  0  0  0  0  0  0  0
   -1.1402   -0.8545    2.3175 C   0  0  0  0  0  0  0  0  0  0  0  0
    5.3806    0.6961   -0.2412 C   0  0  0  0  0  0  0  0  0  0  0  0
   -3.8060   -0.9470    0.9445 C   0  0  1  0  0  0  0  0  0  0  0  0
    3.5136   -0.9941    1.6188 C   0  0  0  0  0  0  0  0  0  0  0  0
    5.3190   -1.7870   -0.7690 C   0  0  0  0  0  0  0  0  0  0  0  0
    5.9447   -0.4362   -1.1008 C   0  0  1  0  0  0  0  0  0  0  0  0
   -5.1640   -0.3574    0.5114 C   0  0  0  0  0  0  0  0  0  0  0  0
   -3.6283   -2.3920    0.4669 C   0  0  0  0  0  0  0  0  0  0  0  0
   -5.3103   -0.1941   -1.0027 C   0  0  0  0  0  0  0  0  0  0  0  0
   -6.6237    0.4564   -1.3747 C   0  0  0  0  0  0  0  0  0  0  0  0
   -0.5593    0.8888   -0.6916 H   0  0  0  0  0  0  0  0  0  0  0  0
    1.1594    0.5367    1.7852 H   0  0  0  0  0  0  0  0  0  0  0  0
    1.4962   -0.2914   -1.1451 H   0  0  0  0  0  0  0  0  0  0  0  0
   -2.6958   -0.0658   -0.6752 H   0  0  0  0  0  0  0  0  0  0  0  0
    3.5718    0.9189   -1.3248 H   0  0  0  0  0  0  0  0  0  0  0  0
   -0.8719   -1.5233   -1.0841 H   0  0  0  0  0  0  0  0  0  0  0  0
   -1.1067   -2.6418    0.2490 H   0  0  0  0  0  0  0  0  0  0  0  0
    1.0502   -2.2059    1.1826 H   0  0  0  0  0  0  0  0  0  0  0  0
    1.1968   -2.6054   -0.5180 H   0  0  0  0  0  0  0  0  0  0  0  0
   -1.1704    2.8334    0.4814 H   0  0  0  0  0  0  0  0  0  0  0  0
   -1.0289    2.0594    2.0645 H   0  0  0  0  0  0  0  0  0  0  0  0
    1.5120    2.2814   -0.6852 H   0  0  0  0  0  0  0  0  0  0  0  0
    1.3575    2.8221    0.9673 H   0  0  0  0  0  0  0  0  0  0  0  0
   -3.2348    1.4659    1.8941 H   0  0  0  0  0  0  0  0  0  0  0  0
   -3.3247    1.9970    0.2105 H   0  0  0  0  0  0  0  0  0  0  0  0
    3.4999    1.8254    1.5951 H   0  0  0  0  0  0  0  0  0  0  0  0
    3.4406   -1.5882   -1.8010 H   0  0  0  0  0  0  0  0  0  0  0  0
    3.4223   -2.7287   -0.4646 H   0  0  0  0  0  0  0  0  0  0  0  0
   -1.5952   -0.0833    2.9472 H   0  0  0  0  0  0  0  0  0  0  0  0
   -1.6431   -1.7982    2.5496 H   0  0  0  0  0  0  0  0  0  0  0  0
   -0.1082   -0.9685    2.6600 H   0  0  0  0  0  0  0  0  0  0  0  0
    5.7740    1.6441   -0.6274 H   0  0  0  0  0  0  0  0  0  0  0  0
    5.7393    0.5990    0.7892 H   0  0  0  0  0  0  0  0  0  0  0  0
   -3.8124   -0.9558    2.0415 H   0  0  0  0  0  0  0  0  0  0  0  0
    3.0625   -0.3003    2.3321 H   0  0  0  0  0  0  0  0  0  0  0  0
    3.1520   -1.9972    1.8681 H   0  0  0  0  0  0  0  0  0  0  0  0
    4.5874   -0.9938    1.8249 H   0  0  0  0  0  0  0  0  0  0  0  0
    5.6799   -2.1291    0.2072 H   0  0  0  0  0  0  0  0  0  0  0  0
    5.6403   -2.5357   -1.5034 H   0  0  0  0  0  0  0  0  0  0  0  0
    7.0311   -0.4860   -0.9680 H   0  0  0  0  0  0  0  0  0  0  0  0
   -5.9699   -1.0046    0.8824 H   0  0  0  0  0  0  0  0  0  0  0  0
   -5.3236    0.6106    1.0027 H   0  0  0  0  0  0  0  0  0  0  0  0
   -3.3194   -2.4539   -0.5812 H   0  0  0  0  0  0  0  0  0  0  0  0
   -2.9293   -2.9449    1.0972 H   0  0  0  0  0  0  0  0  0  0  0  0
   -4.5782   -2.9336    0.5512 H   0  0  0  0  0  0  0  0  0  0  0  0
    4.7055    3.2221    0.4160 H   0  0  0  0  0  0  0  0  0  0  0  0
    6.0947   -0.8372   -3.0085 H   0  0  0  0  0  0  0  0  0  0  0  0
   -4.5347    0.4562   -1.4147 H   0  0  0  0  0  0  0  0  0  0  0  0
   -5.2649   -1.1705   -1.4958 H   0  0  0  0  0  0  0  0  0  0  0  0
   -7.6057    0.9942   -2.9710 H   0  0  0  0  0  0  0  0  0  0  0  0
  1 17  1  0  0  0  0
  1 64  1  0  0  0  0
  2 24  1  0  0  0  0
  2 65  1  0  0  0  0
  3 28  1  0  0  0  0
  3 68  1  0  0  0  0
  4 28  2  0  0  0  0
  5  6  1  0  0  0  0
  5  7  1  0  0  0  0
  5 14  1  0  0  0  0
  5 29  1  0  0  0  0
  6 10  1  0  0  0  0
  6 12  1  0  0  0  0
  6 19  1  0  0  0  0
  7  8  1  0  0  0  0
  7 15  1  0  0  0  0
  7 30  1  0  0  0  0
  8  9  1  0  0  0  0
  8 13  1  0  0  0  0
  8 31  1  0  0  0  0
  9 11  1  0  0  0  0
  9 18  1  0  0  0  0
  9 22  1  0  0  0  0
 10 16  1  0  0  0  0
 10 21  1  0  0  0  0
 10 32  1  0  0  0  0
 11 17  1  0  0  0  0
 11 20  1  0  0  0  0
 11 33  1  0  0  0  0
 12 13  1  0  0  0  0
 12 34  1  0  0  0  0
 12 35  1  0  0  0  0
 13 36  1  0  0  0  0
 13 37  1  0  0  0  0
 14 16  1  0  0  0  0
 14 38  1  0  0  0  0
 14 39  1  0  0  0  0
 15 17  1  0  0  0  0
 15 40  1  0  0  0  0
 15 41  1  0  0  0  0
 16 42  1  0  0  0  0
 16 43  1  0  0  0  0
 17 44  1  0  0  0  0
 18 23  1  0  0  0  0
 18 45  1  0  0  0  0
 18 46  1  0  0  0  0
 19 47  1  0  0  0  0
 19 48  1  0  0  0  0
 19 49  1  0  0  0  0
 20 24  1  0  0  0  0
 20 50  1  0  0  0  0
 20 51  1  0  0  0  0
 21 25  1  0  0  0  0
 21 26  1  0  0  0  0
 21 52  1  0  0  0  0
 22 53  1  0  0  0  0
 22 54  1  0  0  0  0
 22 55  1  0  0  0  0
 23 24  1  0  0  0  0
 23 56  1  0  0  0  0
 23 57  1  0  0  0  0
 24 58  1  0  0  0  0
 25 27  1  0  0  0  0
 25 59  1  0  0  0  0
 25 60  1  0  0  0  0
 26 61  1  0  0  0  0
 26 62  1  0  0  0  0
 26 63  1  0  0  0  0
 27 28  1  0  0  0  0
 27 66  1  0  0  0  0
 27 67  1  0  0  0  0
M  END
> <PUBCHEM_COMPOUND_CID>
9963687

> <PUBCHEM_CONFORMER_RMSD>
0.8

> <PUBCHEM_CONFORMER_DIVERSEORDER>
3
6
1
4
2
5

> <PUBCHEM_MMFF94_PARTIAL_CHARGES>
11
1 -0.68
17 0.28
2 -0.68
24 0.28
27 0.06
28 0.66
3 -0.65
4 -0.57
64 0.4
65 0.4
68 0.5

> <PUBCHEM_EFFECTIVE_ROTOR_COUNT>
6.2

> <PUBCHEM_PHARMACOPHORE_FEATURES>
12
1 1 acceptor
1 1 donor
1 2 acceptor
1 2 donor
1 26 hydrophobe
1 3 acceptor
1 4 acceptor
3 3 4 28 anion
5 5 6 10 14 16 rings
6 5 6 7 8 12 13 rings
6 7 8 9 11 15 17 rings
6 9 11 18 20 23 24 rings

> <PUBCHEM_HEAVY_ATOM_COUNT>
28

> <PUBCHEM_ATOM_DEF_STEREO_COUNT>
9

> <PUBCHEM_ATOM_UDEF_STEREO_COUNT>
1

> <PUBCHEM_BOND_DEF_STEREO_COUNT>
0

> <PUBCHEM_BOND_UDEF_STEREO_COUNT>
0

> <PUBCHEM_ISOTOPIC_ATOM_COUNT>
0

> <PUBCHEM_COMPONENT_COUNT>
1

> <PUBCHEM_CACTVS_TAUTO_COUNT>
1

> <PUBCHEM_CONFORMER_ID>
009808A700000003

> <PUBCHEM_MMFF94_ENERGY>
95.6907

> <PUBCHEM_FEATURE_SELFOVERLAP>
61.043

> <PUBCHEM_SHAPE_FINGERPRINT>
10366900 7 18041293122913053522
10693767 8 18059572426120896278
10763959 59 17967817175438465996
10835480 77 18338231686443433473
10906281 52 18341905039639605907
12011746 2 18408328782718814390
12236239 1 17060626593953939128
12403259 415 18041564736444463723
12596602 18 13551195480867395453
12838862 33 18342731958536331016
13533116 47 17560804355326149312
13540713 4 18193843875265171362
13782708 43 14405187270235813717
14931854 50 18336278864278282582
15183329 4 18410569566505842329
15188451 53 14548731812161949429
15196674 1 18269281316528321898
15238133 3 15502367941613597205
15475509 35 14117521983263780494
17349148 13 17203341004506165090
18222031 100 18060136527066802562
19377110 9 11530480034681613911
200 152 17846504729188560219
20028762 73 17274821333322646486
21033648 29 17531245109977669561
21267235 1 18270135585544777178
21279426 13 18410857698175505139
21424621 283 15791729664376121157
21521239 73 18131344228807753407
21637258 2 15410890756537313757
21781055 127 13190344531535146678
21859007 373 18041821970399642996
221357 26 18341613694095001040
2215653 11 18413672408944982175
22393880 68 18334573589967472811
22956985 138 15767835016982326084
23522609 53 16915969389711782345
23559900 14 18340488962292448504
23569914 152 17619051847006462559
29717793 49 17917714603761248556
3004659 81 18410009948645241641
3009799 131 18410289199187510931
335352 9 18413395327698774879
350125 39 18341344317967278176
3633792 109 18202565072663723080
4015057 19 18272651298820620017
4058900 60 17749113236274942675
5104073 3 18272380754392993418
5283173 99 18260259738324817509
59755656 215 18335981995647912549
9709674 26 18265906919991131162

> <PUBCHEM_SHAPE_MULTIPOLES>
552.75
16.04
2.29
1.66
14.17
0.61
0.53
0.27
10.76
-1.63
-0.31
1.09
-0.13
1.13

> <PUBCHEM_SHAPE_SELFOVERLAP>
1157.893

> <PUBCHEM_SHAPE_VOLUME>
310.6

> <PUBCHEM_COORDINATE_TYPE>
2
5
10

$$$$
