3017884
  -OEChem-09111619223D

 33 32  0     1  0  0  0  0  0999 V2000
   -3.2100   -1.6741   -0.8750 O   0  0  0  0  0  0  0  0  0  0  0  0
   -5.5075    1.7456    0.4083 O   0  0  0  0  0  0  0  0  0  0  0  0
    6.7899   -0.2595   -0.3962 O   0  0  0  0  0  0  0  0  0  0  0  0
   -4.4096    0.9017   -1.3957 O   0  0  0  0  0  0  0  0  0  0  0  0
    5.5709    1.5846    0.1317 O   0  0  0  0  0  0  0  0  0  0  0  0
   -0.6025   -0.8691    0.2808 C   0  0  0  0  0  0  0  0  0  0  0  0
    0.6181    0.0473    0.3786 C   0  0  0  0  0  0  0  0  0  0  0  0
   -1.9442   -0.1702    0.5460 C   0  0  0  0  0  0  0  0  0  0  0  0
    1.9115   -0.7198    0.0891 C   0  0  0  0  0  0  0  0  0  0  0  0
   -3.1683   -1.0881    0.4228 C   0  0  1  0  0  0  0  0  0  0  0  0
    3.1307    0.2051    0.1510 C   0  0  0  0  0  0  0  0  0  0  0  0
   -4.4898   -0.3584    0.6949 C   0  0  0  0  0  0  0  0  0  0  0  0
    4.4393   -0.5367   -0.1038 C   0  0  0  0  0  0  0  0  0  0  0  0
   -4.7617    0.8068   -0.2298 C   0  0  0  0  0  0  0  0  0  0  0  0
    5.6331    0.3848   -0.1027 C   0  0  0  0  0  0  0  0  0  0  0  0
   -0.6164   -1.3124   -0.7219 H   0  0  0  0  0  0  0  0  0  0  0  0
   -0.4902   -1.6979    0.9909 H   0  0  0  0  0  0  0  0  0  0  0  0
    0.6654    0.4885    1.3813 H   0  0  0  0  0  0  0  0  0  0  0  0
    0.5112    0.8736   -0.3344 H   0  0  0  0  0  0  0  0  0  0  0  0
   -1.9251    0.2772    1.5471 H   0  0  0  0  0  0  0  0  0  0  0  0
   -2.0261    0.6536   -0.1730 H   0  0  0  0  0  0  0  0  0  0  0  0
    1.8541   -1.1811   -0.9042 H   0  0  0  0  0  0  0  0  0  0  0  0
    2.0287   -1.5312    0.8175 H   0  0  0  0  0  0  0  0  0  0  0  0
   -3.0800   -1.9077    1.1462 H   0  0  0  0  0  0  0  0  0  0  0  0
    3.1726    0.6904    1.1344 H   0  0  0  0  0  0  0  0  0  0  0  0
    3.0138    1.0084   -0.5877 H   0  0  0  0  0  0  0  0  0  0  0  0
   -5.3300   -1.0528    0.5795 H   0  0  0  0  0  0  0  0  0  0  0  0
   -4.4822    0.0061    1.7290 H   0  0  0  0  0  0  0  0  0  0  0  0
    4.5937   -1.2952    0.6714 H   0  0  0  0  0  0  0  0  0  0  0  0
    4.3967   -1.0313   -1.0807 H   0  0  0  0  0  0  0  0  0  0  0  0
   -2.5126   -2.3496   -0.9190 H   0  0  0  0  0  0  0  0  0  0  0  0
   -5.7150    2.5062   -0.1753 H   0  0  0  0  0  0  0  0  0  0  0  0
    7.5588    0.3498   -0.3950 H   0  0  0  0  0  0  0  0  0  0  0  0
  1 10  1  0  0  0  0
  1 31  1  0  0  0  0
  2 14  1  0  0  0  0
  2 32  1  0  0  0  0
  3 15  1  0  0  0  0
  3 33  1  0  0  0  0
  4 14  2  0  0  0  0
  5 15  2  0  0  0  0
  6  7  1  0  0  0  0
  6  8  1  0  0  0  0
  6 16  1  0  0  0  0
  6 17  1  0  0  0  0
  7  9  1  0  0  0  0
  7 18  1  0  0  0  0
  7 19  1  0  0  0  0
  8 10  1  0  0  0  0
  8 20  1  0  0  0  0
  8 21  1  0  0  0  0
  9 11  1  0  0  0  0
  9 22  1  0  0  0  0
  9 23  1  0  0  0  0
 10 12  1  0  0  0  0
 10 24  1  0  0  0  0
 11 13  1  0  0  0  0
 11 25  1  0  0  0  0
 11 26  1  0  0  0  0
 12 14  1  0  0  0  0
 12 27  1  0  0  0  0
 12 28  1  0  0  0  0
 13 15  1  0  0  0  0
 13 29  1  0  0  0  0
 13 30  1  0  0  0  0
M  END
> <PUBCHEM_COMPOUND_CID>
3017884

> <PUBCHEM_CONFORMER_RMSD>
1

> <PUBCHEM_CONFORMER_DIVERSEORDER>
1
128
181
401
281
626
6
15
440
14
75
519
50
254
2
324
352
370
53
600
8
206
377
485
28
3
648
396
67
417
373
511
359
57
83
480
79
390
134
541
5
668
60
171
23
232
11
432
483
608
380
88
10
311
133
536
44
566
132
207
288
454
36
486
118
130
18
34
517
22
245
222
309
47
142
117
530
139
113
388
621
385
526
160
17
9
496
620
84
663
598
45
259
453
218
510
157
196
460
110
141
295
521
529
601
476
543
642
266
491
570
38
478
71
250
551
115
528
431
153
37
463
559
334
406
317
211
340
314
499
226
146
55
299
344
518
333
144

> <PUBCHEM_MMFF94_PARTIAL_CHARGES>
13
1 -0.68
10 0.28
12 0.06
13 0.06
14 0.66
15 0.66
2 -0.65
3 -0.65
31 0.4
32 0.5
33 0.5
4 -0.57
5 -0.57

> <PUBCHEM_EFFECTIVE_ROTOR_COUNT>
9

> <PUBCHEM_PHARMACOPHORE_FEATURES>
10
1 1 acceptor
1 1 donor
1 2 acceptor
1 3 acceptor
1 4 acceptor
1 5 acceptor
3 2 4 14 anion
3 3 5 15 anion
3 6 7 8 hydrophobe
3 9 11 13 hydrophobe

> <PUBCHEM_HEAVY_ATOM_COUNT>
15

> <PUBCHEM_ATOM_DEF_STEREO_COUNT>
0

> <PUBCHEM_ATOM_UDEF_STEREO_COUNT>
1

> <PUBCHEM_BOND_DEF_STEREO_COUNT>
0

> <PUBCHEM_BOND_UDEF_STEREO_COUNT>
0

> <PUBCHEM_ISOTOPIC_ATOM_COUNT>
0

> <PUBCHEM_COMPONENT_COUNT>
1

> <PUBCHEM_CACTVS_TAUTO_COUNT>
1

> <PUBCHEM_CONFORMER_ID>
002E0C9C00000001

> <PUBCHEM_MMFF94_ENERGY>
10.0672

> <PUBCHEM_FEATURE_SELFOVERLAP>
50.865

> <PUBCHEM_SHAPE_FINGERPRINT>
11315181 36 9655574111090027451
117890 112 18408323285297890608
11858739 19 17775292625807893870
12091667 2 18335423490811881146
12596602 18 11314303949780210428
13288520 33 11455886962840944315
14123238 8 9799694796623548594
14251752 14 18411417285385740178
14729087 3 18410289220915912496
15048467 5 18335139778019903185
15242439 84 17632857533752496962
15501527 16 18333733498869877649
15778101 99 18408889512580325801
16079462 125 18341040900482641592
17834072 33 18131070484919868306
17834072 8 17917710201488036649
17834076 25 17676489453756614090
18222031 100 14476961181958329314
20281389 69 17967811622309359397
20621476 66 18337114471414000985
20645477 56 18334856108968908547
20645477 70 18129948871011345782
21150785 3 17417804080213820925
21709351 56 18340764939790024550
220451 1 16153427264381134410
23402539 116 18410853282880579150
23402655 69 18342174457862433586
23559900 14 17417804084809611922
270888 7 18120653536129707917
2916195 48 18113616819786227648
293599 30 18259985967954758322
29717793 49 17489595541678902252
300161 21 18411695491755467866
42788 4 18408887356243076978
441001 317 18409731746634285033
49783359 22 9223230749774305873
542803 24 17167864175235600714
57583515 80 17703791405616506994
7062679 117 12679460893550776269
7062679 6 18260835873168415805

> <PUBCHEM_SHAPE_MULTIPOLES>
279.35
16.82
1.35
0.84
14.71
0.22
-0.13
5.59
-1.47
-1.18
-0.08
-0.8
0.01
0.23

> <PUBCHEM_SHAPE_SELFOVERLAP>
525.495

> <PUBCHEM_SHAPE_VOLUME>
172.2

> <PUBCHEM_COORDINATE_TYPE>
2
5
10

$$$$
