152990
  -OEChem-09111619163D

 24 23  0     1  0  0  0  0  0999 V2000
    0.9092   -1.5736    0.9378 O   0  0  0  0  0  0  0  0  0  0  0  0
    2.0362    1.4476   -0.7951 O   0  0  0  0  0  0  0  0  0  0  0  0
   -1.7443   -1.2126   -1.2173 O   0  0  0  0  0  0  0  0  0  0  0  0
    4.5224    0.4500    0.1032 O   0  0  0  0  0  0  0  0  0  0  0  0
   -3.0856    0.9379    1.3379 O   0  0  0  0  0  0  0  0  0  0  0  0
   -3.8245    0.4306   -0.7470 O   0  0  0  0  0  0  0  0  0  0  0  0
    0.8574   -0.5103   -0.0113 C   0  0  1  0  0  0  0  0  0  0  0  0
   -0.4490    0.2896    0.1636 C   0  0  0  0  0  0  0  0  0  0  0  0
    2.1054    0.3761    0.1470 C   0  0  1  0  0  0  0  0  0  0  0  0
   -1.7353   -0.5381    0.0307 C   0  0  1  0  0  0  0  0  0  0  0  0
    3.3986   -0.4030   -0.0899 C   0  0  0  0  0  0  0  0  0  0  0  0
   -2.9904    0.3058    0.1404 C   0  0  0  0  0  0  0  0  0  0  0  0
    0.8612   -0.9589   -1.0118 H   0  0  0  0  0  0  0  0  0  0  0  0
   -0.4444    0.7715    1.1497 H   0  0  0  0  0  0  0  0  0  0  0  0
   -0.4765    1.0936   -0.5827 H   0  0  0  0  0  0  0  0  0  0  0  0
    2.1324    0.8209    1.1492 H   0  0  0  0  0  0  0  0  0  0  0  0
   -1.7776   -1.3021    0.8155 H   0  0  0  0  0  0  0  0  0  0  0  0
    3.4886   -1.2461    0.6016 H   0  0  0  0  0  0  0  0  0  0  0  0
    3.4418   -0.7747   -1.1192 H   0  0  0  0  0  0  0  0  0  0  0  0
    0.8917   -1.1782    1.8262 H   0  0  0  0  0  0  0  0  0  0  0  0
    2.8384    1.9857   -0.6829 H   0  0  0  0  0  0  0  0  0  0  0  0
   -2.5025   -1.8217   -1.2167 H   0  0  0  0  0  0  0  0  0  0  0  0
    5.3176   -0.0846   -0.0625 H   0  0  0  0  0  0  0  0  0  0  0  0
   -3.8946    1.4897    1.3970 H   0  0  0  0  0  0  0  0  0  0  0  0
  1  7  1  0  0  0  0
  1 20  1  0  0  0  0
  2  9  1  0  0  0  0
  2 21  1  0  0  0  0
  3 10  1  0  0  0  0
  3 22  1  0  0  0  0
  4 11  1  0  0  0  0
  4 23  1  0  0  0  0
  5 12  1  0  0  0  0
  5 24  1  0  0  0  0
  6 12  2  0  0  0  0
  7  8  1  0  0  0  0
  7  9  1  0  0  0  0
  7 13  1  0  0  0  0
  8 10  1  0  0  0  0
  8 14  1  0  0  0  0
  8 15  1  0  0  0  0
  9 11  1  0  0  0  0
  9 16  1  0  0  0  0
 10 12  1  0  0  0  0
 10 17  1  0  0  0  0
 11 18  1  0  0  0  0
 11 19  1  0  0  0  0
M  END
> <PUBCHEM_COMPOUND_CID>
152990

> <PUBCHEM_CONFORMER_RMSD>
0.6

> <PUBCHEM_CONFORMER_DIVERSEORDER>
1
66
26
61
58
42
71
21
32
23
70
38
7
67
48
76
74
73
28
9
10
69
17
12
47
62
68
46
77
14
20
65
50
19
52
22
55
5
49
75
13
53
11
78
39
27
63
57
2
31
34
3
37
25
44
72
18
40
59
24
56
36
79
60
41
6
64
43
29
30
4
35
33
45
8
54
51
16
15

> <PUBCHEM_MMFF94_PARTIAL_CHARGES>
16
1 -0.68
10 0.34
11 0.28
12 0.66
2 -0.68
20 0.4
21 0.4
22 0.4
23 0.4
24 0.5
3 -0.68
4 -0.68
5 -0.65
6 -0.57
7 0.28
9 0.28

> <PUBCHEM_EFFECTIVE_ROTOR_COUNT>
5

> <PUBCHEM_PHARMACOPHORE_FEATURES>
11
1 1 acceptor
1 1 donor
1 2 acceptor
1 2 donor
1 3 acceptor
1 3 donor
1 4 acceptor
1 4 donor
1 5 acceptor
1 6 acceptor
3 5 6 12 anion

> <PUBCHEM_HEAVY_ATOM_COUNT>
12

> <PUBCHEM_ATOM_DEF_STEREO_COUNT>
3

> <PUBCHEM_ATOM_UDEF_STEREO_COUNT>
0

> <PUBCHEM_BOND_DEF_STEREO_COUNT>
0

> <PUBCHEM_BOND_UDEF_STEREO_COUNT>
0

> <PUBCHEM_ISOTOPIC_ATOM_COUNT>
0

> <PUBCHEM_COMPONENT_COUNT>
1

> <PUBCHEM_CACTVS_TAUTO_COUNT>
1

> <PUBCHEM_CONFORMER_ID>
0002559E00000001

> <PUBCHEM_MMFF94_ENERGY>
16.5167

> <PUBCHEM_FEATURE_SELFOVERLAP>
55.898

> <PUBCHEM_SHAPE_FINGERPRINT>
10219947 1 17894912914813507382
10857977 72 14996291327151370375
11062470 55 16415480450107227352
12932764 1 16081357605220713930
14325111 11 18260551177187337266
14993402 34 18130780149330726053
15775835 57 18411698785551947252
18175812 5 16226053318182378247
18186145 218 18408610270680666764
18342897 14 17675924296448517404
190213 19 18413109463318118171
20279233 1 16588028978949821315
20645464 45 16515687723833667755
20645477 70 17896307035201827210
21119208 17 18343581841346211228
21293036 1 13901905613566853156
22926399 65 16916793924684918937
23235685 24 17894628162597447410
23402539 116 16988839445480268873
3248919 1 18202289108187776327
42627469 27 18341339932720895881

> <PUBCHEM_SHAPE_MULTIPOLES>
211.74
7.03
1.17
0.94
1.81
0.13
-0.03
-1.65
0.15
0.11
0.01
-0.54
0.03
-0.6

> <PUBCHEM_SHAPE_SELFOVERLAP>
401.438

> <PUBCHEM_SHAPE_VOLUME>
129.9

> <PUBCHEM_COORDINATE_TYPE>
2
5
10

$$$$
