12285879
  -OEChem-09121602393D

 24 24  0     1  0  0  0  0  0999 V2000
   -0.6113   -1.2010    0.4855 O   0  0  0  0  0  0  0  0  0  0  0  0
   -0.8519    2.4363   -0.1291 O   0  0  0  0  0  0  0  0  0  0  0  0
    1.3579    1.1720   -1.2060 O   0  0  0  0  0  0  0  0  0  0  0  0
    2.9794   -0.4415    0.4648 O   0  0  0  0  0  0  0  0  0  0  0  0
    1.0236   -1.6078   -1.1790 O   0  0  0  0  0  0  0  0  0  0  0  0
   -3.2483   -1.0998   -0.2658 O   0  0  0  0  0  0  0  0  0  0  0  0
   -0.3830    1.2323    0.4648 C   0  0  2  0  0  0  0  0  0  0  0  0
    1.1195    1.1017    0.2006 C   0  0  1  0  0  0  0  0  0  0  0  0
   -1.1406    0.0086   -0.0766 C   0  0  2  0  0  0  0  0  0  0  0  0
    1.6028   -0.2402    0.7543 C   0  0  1  0  0  0  0  0  0  0  0  0
    0.7769   -1.4108    0.2108 C   0  0  1  0  0  0  0  0  0  0  0  0
   -2.6249    0.0502    0.2756 C   0  0  0  0  0  0  0  0  0  0  0  0
   -0.5446    1.3036    1.5480 H   0  0  0  0  0  0  0  0  0  0  0  0
    1.6770    1.9308    0.6504 H   0  0  0  0  0  0  0  0  0  0  0  0
   -1.0581   -0.0470   -1.1699 H   0  0  0  0  0  0  0  0  0  0  0  0
    1.4912   -0.2201    1.8460 H   0  0  0  0  0  0  0  0  0  0  0  0
    1.0768   -2.3372    0.7108 H   0  0  0  0  0  0  0  0  0  0  0  0
   -3.1181    0.9414   -0.1238 H   0  0  0  0  0  0  0  0  0  0  0  0
   -2.7718    0.0216    1.3600 H   0  0  0  0  0  0  0  0  0  0  0  0
   -0.3497    3.1718    0.2611 H   0  0  0  0  0  0  0  0  0  0  0  0
    0.9940    2.0173   -1.5203 H   0  0  0  0  0  0  0  0  0  0  0  0
    3.4689    0.3176    0.8248 H   0  0  0  0  0  0  0  0  0  0  0  0
    1.2286   -0.7519   -1.5881 H   0  0  0  0  0  0  0  0  0  0  0  0
   -3.1529   -1.0605   -1.2326 H   0  0  0  0  0  0  0  0  0  0  0  0
  1  9  1  0  0  0  0
  1 11  1  0  0  0  0
  2  7  1  0  0  0  0
  2 20  1  0  0  0  0
  3  8  1  0  0  0  0
  3 21  1  0  0  0  0
  4 10  1  0  0  0  0
  4 22  1  0  0  0  0
  5 11  1  0  0  0  0
  5 23  1  0  0  0  0
  6 12  1  0  0  0  0
  6 24  1  0  0  0  0
  7  8  1  0  0  0  0
  7  9  1  0  0  0  0
  7 13  1  0  0  0  0
  8 10  1  0  0  0  0
  8 14  1  0  0  0  0
  9 12  1  0  0  0  0
  9 15  1  0  0  0  0
 10 11  1  0  0  0  0
 10 16  1  0  0  0  0
 11 17  1  0  0  0  0
 12 18  1  0  0  0  0
 12 19  1  0  0  0  0
M  END
> <PUBCHEM_COMPOUND_CID>
12285879

> <PUBCHEM_CONFORMER_RMSD>
0.6

> <PUBCHEM_CONFORMER_DIVERSEORDER>
1
2
3
4

> <PUBCHEM_MMFF94_PARTIAL_CHARGES>
17
1 -0.56
10 0.28
11 0.56
12 0.28
2 -0.68
20 0.4
21 0.4
22 0.4
23 0.4
24 0.4
3 -0.68
4 -0.68
5 -0.68
6 -0.68
7 0.28
8 0.28
9 0.28

> <PUBCHEM_EFFECTIVE_ROTOR_COUNT>
2.2

> <PUBCHEM_PHARMACOPHORE_FEATURES>
12
1 1 acceptor
1 2 acceptor
1 2 donor
1 3 acceptor
1 3 donor
1 4 acceptor
1 4 donor
1 5 acceptor
1 5 donor
1 6 acceptor
1 6 donor
6 1 7 8 9 10 11 rings

> <PUBCHEM_HEAVY_ATOM_COUNT>
12

> <PUBCHEM_ATOM_DEF_STEREO_COUNT>
4

> <PUBCHEM_ATOM_UDEF_STEREO_COUNT>
1

> <PUBCHEM_BOND_DEF_STEREO_COUNT>
0

> <PUBCHEM_BOND_UDEF_STEREO_COUNT>
0

> <PUBCHEM_ISOTOPIC_ATOM_COUNT>
0

> <PUBCHEM_COMPONENT_COUNT>
1

> <PUBCHEM_CACTVS_TAUTO_COUNT>
1

> <PUBCHEM_CONFORMER_ID>
00BB77B700000001

> <PUBCHEM_MMFF94_ENERGY>
29.6382

> <PUBCHEM_FEATURE_SELFOVERLAP>
60.973

> <PUBCHEM_SHAPE_FINGERPRINT>
10219947 1 18341608252223523259
12423570 1 10074769219469343888
14128692 85 18409729560253026249
16945 1 18338220601237727042
20201158 50 18335414656348976787
21040471 1 18049442839872509008
23552423 10 18262526883613130507
241688 4 17904490605773264642
2748010 2 18122627420533682706
4369600 1 18126867081472859333
5084963 1 18408036325199465737

> <PUBCHEM_SHAPE_MULTIPOLES>
211.74
3.43
1.91
0.89
1.5
0.57
0.17
-0.98
-0.17
0.12
0.27
-0.32
-0.04
-0.1

> <PUBCHEM_SHAPE_SELFOVERLAP>
423.171

> <PUBCHEM_SHAPE_VOLUME>
122.7

> <PUBCHEM_COORDINATE_TYPE>
2
5
10

$$$$
