24758425
  -OEChem-09111617593D

 54 57  0     1  0  0  0  0  0999 V2000
   -0.1840   -2.1313   -0.7109 O   0  0  0  0  0  0  0  0  0  0  0  0
    2.3002   -1.0122   -2.2793 O   0  0  0  0  0  0  0  0  0  0  0  0
    5.0445    0.6630   -0.5826 O   0  0  0  0  0  0  0  0  0  0  0  0
   -6.6267   -0.1633    0.3758 O   0  0  0  0  0  0  0  0  0  0  0  0
    6.4435   -1.0501    0.9430 O   0  0  0  0  0  0  0  0  0  0  0  0
    0.9964    0.7482   -0.6620 C   0  0  2  0  0  0  0  0  0  0  0  0
   -0.2304    1.0523    0.2350 C   0  0  2  0  0  0  0  0  0  0  0  0
    1.9664   -0.2698    0.0003 C   0  0  2  0  0  0  0  0  0  0  0  0
   -1.0554   -0.2310    0.5978 C   0  0  1  0  0  0  0  0  0  0  0  0
   -2.4671   -0.3242   -0.0934 C   0  0  2  0  0  0  0  0  0  0  0  0
   -0.1888   -1.5170    0.5693 C   0  0  2  0  0  0  0  0  0  0  0  0
    1.2516   -1.2133    0.9949 C   0  0  0  0  0  0  0  0  0  0  0  0
    3.0465    0.5921    0.7183 C   0  0  2  0  0  0  0  0  0  0  0  0
    1.9052    1.9545   -0.9320 C   0  0  0  0  0  0  0  0  0  0  0  0
   -1.1043    2.1932   -0.3151 C   0  0  0  0  0  0  0  0  0  0  0  0
    2.7938    2.0441    0.2967 C   0  0  0  0  0  0  0  0  0  0  0  0
   -3.2486    0.9592    0.2094 C   0  0  0  0  0  0  0  0  0  0  0  0
   -2.4696    2.2423    0.3575 C   0  0  0  0  0  0  0  0  0  0  0  0
   -3.2557   -1.5215    0.5087 C   0  0  0  0  0  0  0  0  0  0  0  0
    2.5883   -1.1202   -1.0919 C   0  0  0  0  0  0  0  0  0  0  0  0
   -2.3914   -0.5024   -1.6294 C   0  0  0  0  0  0  0  0  0  0  0  0
    4.4617    0.2032    0.3983 C   0  0  0  0  0  0  0  0  0  0  0  0
   -4.7117   -1.5623    0.0599 C   0  0  0  0  0  0  0  0  0  0  0  0
   -4.5805    0.9872    0.3894 C   0  0  0  0  0  0  0  0  0  0  0  0
   -5.4018   -0.2425    0.2962 C   0  0  0  0  0  0  0  0  0  0  0  0
    5.1179   -0.7782    1.3460 C   0  0  0  0  0  0  0  0  0  0  0  0
    0.6032    0.3994   -1.6230 H   0  0  0  0  0  0  0  0  0  0  0  0
    0.1627    1.4234    1.1941 H   0  0  0  0  0  0  0  0  0  0  0  0
   -1.2770   -0.0898    1.6706 H   0  0  0  0  0  0  0  0  0  0  0  0
   -0.6157   -2.2441    1.2703 H   0  0  0  0  0  0  0  0  0  0  0  0
    1.2249   -0.7758    2.0009 H   0  0  0  0  0  0  0  0  0  0  0  0
    1.8093   -2.1547    1.0816 H   0  0  0  0  0  0  0  0  0  0  0  0
    2.9411    0.5548    1.8097 H   0  0  0  0  0  0  0  0  0  0  0  0
    2.5253    1.7608   -1.8162 H   0  0  0  0  0  0  0  0  0  0  0  0
    1.3696    2.8877   -1.1191 H   0  0  0  0  0  0  0  0  0  0  0  0
   -1.2249    2.1114   -1.4008 H   0  0  0  0  0  0  0  0  0  0  0  0
   -0.6043    3.1535   -0.1393 H   0  0  0  0  0  0  0  0  0  0  0  0
    2.2514    2.5644    1.0963 H   0  0  0  0  0  0  0  0  0  0  0  0
    3.6980    2.6290    0.1002 H   0  0  0  0  0  0  0  0  0  0  0  0
   -2.3297    2.4454    1.4272 H   0  0  0  0  0  0  0  0  0  0  0  0
   -3.0369    3.0835   -0.0596 H   0  0  0  0  0  0  0  0  0  0  0  0
   -2.7842   -2.4745    0.2409 H   0  0  0  0  0  0  0  0  0  0  0  0
   -3.2312   -1.4611    1.6060 H   0  0  0  0  0  0  0  0  0  0  0  0
    3.3074   -1.8914   -0.7672 H   0  0  0  0  0  0  0  0  0  0  0  0
   -3.3302   -0.2156   -2.1187 H   0  0  0  0  0  0  0  0  0  0  0  0
   -1.6043    0.0962   -2.0907 H   0  0  0  0  0  0  0  0  0  0  0  0
   -2.2078   -1.5449   -1.9088 H   0  0  0  0  0  0  0  0  0  0  0  0
   -5.2388   -2.3342    0.6318 H   0  0  0  0  0  0  0  0  0  0  0  0
   -4.7947   -1.8106   -1.0031 H   0  0  0  0  0  0  0  0  0  0  0  0
   -5.1052    1.9104    0.6124 H   0  0  0  0  0  0  0  0  0  0  0  0
    0.3376   -2.9491   -0.6437 H   0  0  0  0  0  0  0  0  0  0  0  0
    5.1398   -0.3424    2.3489 H   0  0  0  0  0  0  0  0  0  0  0  0
    4.5500   -1.7121    1.3535 H   0  0  0  0  0  0  0  0  0  0  0  0
    6.8185   -1.6730    1.5887 H   0  0  0  0  0  0  0  0  0  0  0  0
  1 11  1  0  0  0  0
  1 51  1  0  0  0  0
  2 20  2  0  0  0  0
  3 22  2  0  0  0  0
  4 25  2  0  0  0  0
  5 26  1  0  0  0  0
  5 54  1  0  0  0  0
  6  7  1  0  0  0  0
  6  8  1  0  0  0  0
  6 14  1  0  0  0  0
  6 27  1  0  0  0  0
  7  9  1  0  0  0  0
  7 15  1  0  0  0  0
  7 28  1  0  0  0  0
  8 12  1  0  0  0  0
  8 13  1  0  0  0  0
  8 20  1  0  0  0  0
  9 10  1  0  0  0  0
  9 11  1  0  0  0  0
  9 29  1  0  0  0  0
 10 17  1  0  0  0  0
 10 19  1  0  0  0  0
 10 21  1  0  0  0  0
 11 12  1  0  0  0  0
 11 30  1  0  0  0  0
 12 31  1  0  0  0  0
 12 32  1  0  0  0  0
 13 16  1  0  0  0  0
 13 22  1  0  0  0  0
 13 33  1  0  0  0  0
 14 16  1  0  0  0  0
 14 34  1  0  0  0  0
 14 35  1  0  0  0  0
 15 18  1  0  0  0  0
 15 36  1  0  0  0  0
 15 37  1  0  0  0  0
 16 38  1  0  0  0  0
 16 39  1  0  0  0  0
 17 18  1  0  0  0  0
 17 24  2  0  0  0  0
 18 40  1  0  0  0  0
 18 41  1  0  0  0  0
 19 23  1  0  0  0  0
 19 42  1  0  0  0  0
 19 43  1  0  0  0  0
 20 44  1  0  0  0  0
 21 45  1  0  0  0  0
 21 46  1  0  0  0  0
 21 47  1  0  0  0  0
 22 26  1  0  0  0  0
 23 25  1  0  0  0  0
 23 48  1  0  0  0  0
 23 49  1  0  0  0  0
 24 25  1  0  0  0  0
 24 50  1  0  0  0  0
 26 52  1  0  0  0  0
 26 53  1  0  0  0  0
M  END
> <PUBCHEM_COMPOUND_CID>
24758425

> <PUBCHEM_CONFORMER_RMSD>
0.8

> <PUBCHEM_CONFORMER_DIVERSEORDER>
1
43
35
36
25
42
37
5
27
10
3
15
14
38
2
34
21
13
7
29
26
19
18
30
31
40
16
22
23
41
4
9
11
33
20
24
12
32
8
17
39
6
28

> <PUBCHEM_MMFF94_PARTIAL_CHARGES>
21
1 -0.68
10 0.14
11 0.28
13 0.06
17 -0.28
18 0.14
2 -0.57
20 0.45
22 0.45
23 0.06
24 -0.14
25 0.49
26 0.34
3 -0.57
4 -0.57
44 0.06
5 -0.68
50 0.15
51 0.4
54 0.4
8 0.06

> <PUBCHEM_EFFECTIVE_ROTOR_COUNT>
4.8

> <PUBCHEM_PHARMACOPHORE_FEATURES>
11
1 1 acceptor
1 1 donor
1 2 acceptor
1 3 acceptor
1 4 acceptor
1 5 acceptor
1 5 donor
5 6 8 13 14 16 rings
6 10 17 19 23 24 25 rings
6 6 7 8 9 11 12 rings
6 7 9 10 15 17 18 rings

> <PUBCHEM_HEAVY_ATOM_COUNT>
26

> <PUBCHEM_ATOM_DEF_STEREO_COUNT>
4

> <PUBCHEM_ATOM_UDEF_STEREO_COUNT>
3

> <PUBCHEM_BOND_DEF_STEREO_COUNT>
0

> <PUBCHEM_BOND_UDEF_STEREO_COUNT>
0

> <PUBCHEM_ISOTOPIC_ATOM_COUNT>
0

> <PUBCHEM_COMPONENT_COUNT>
1

> <PUBCHEM_CACTVS_TAUTO_COUNT>
20

> <PUBCHEM_CONFORMER_ID>
0179C89900000001

> <PUBCHEM_MMFF94_ENERGY>
84.9326

> <PUBCHEM_FEATURE_SELFOVERLAP>
55.969

> <PUBCHEM_SHAPE_FINGERPRINT>
10 15 18201426009657661936
10906281 52 18265635306212040700
12166972 35 17312822684245122332
12236239 1 17822010904119026985
12403259 415 17749377196010932132
12403260 363 18408885156840312080
12633257 1 18342452660416780784
12788726 201 18340219534710117625
13140716 1 18264487462984830826
13224815 77 18410577284097953569
13533116 47 17967246482275974170
13862211 1 18408600392340353579
14178342 30 18266460897362628104
14251764 18 18333728031750913520
14341114 176 18260267464511618656
15196674 1 18336264647271887825
15788980 27 17095238111868332767
16728300 4 17753024139237885314
16945 1 18187092723525587305
17349148 13 18408039636724830288
17980427 23 18058432370175581012
1813 80 17822300071366542533
200 152 18260545649807163473
20028762 73 18341045302254985718
21033648 29 17274244068174337328
21267235 1 18334298660304104259
22182313 1 18129946654886517588
23402539 116 18341887523913659535
23522609 53 18117025254304256212
23557571 272 18202005404144352617
23559900 14 18271813358631461726
296302 2 14189577442275427037
335352 9 18334856125942965125
3411729 13 18196930188216895664
345986 75 17605532398339720256
350125 39 18408885143950265320
3680242 22 18334018258979638009
392239 28 18261408779631243083
4340502 62 15985107430908810695
465052 167 18334859433131151514
5104073 3 18339646740780942009
59755656 215 18343026566515484150
59755656 520 17530681030975864419
9709674 26 18341059583257933167

> <PUBCHEM_SHAPE_MULTIPOLES>
505.72
11.86
2.14
1.22
0.67
0.61
0.49
-2.24
-2.97
0.24
0.05
-0.85
-0.33
-0.39

> <PUBCHEM_SHAPE_SELFOVERLAP>
1089.967

> <PUBCHEM_SHAPE_VOLUME>
272.6

> <PUBCHEM_COORDINATE_TYPE>
2
5
10

$$$$
