20848956
  -OEChem-09111619553D

 45 44  0     1  0  0  0  0  0999 V2000
    5.5737   -0.8855    1.5333 O   0  0  0  0  0  0  0  0  0  0  0  0
    7.7206    2.1710   -0.4780 O   0  0  0  0  0  0  0  0  0  0  0  0
    8.2456    0.0660    0.2004 O   0  0  0  0  0  0  0  0  0  0  0  0
   -9.4118    0.9630    0.5192 O   0  0  0  0  0  0  0  0  0  0  0  0
   -8.6023   -0.8087   -0.6565 O   0  0  0  0  0  0  0  0  0  0  0  0
    0.5428   -0.0829    0.0638 C   0  0  0  0  0  0  0  0  0  0  0  0
   -0.8125   -0.6268   -0.3964 C   0  0  0  0  0  0  0  0  0  0  0  0
    1.7296   -0.9108   -0.4395 C   0  0  0  0  0  0  0  0  0  0  0  0
   -2.0017    0.1660    0.1562 C   0  0  0  0  0  0  0  0  0  0  0  0
    3.0809   -0.4121    0.0791 C   0  0  0  0  0  0  0  0  0  0  0  0
   -3.3575   -0.3613   -0.3221 C   0  0  0  0  0  0  0  0  0  0  0  0
    4.2290   -1.2868   -0.4393 C   0  0  0  0  0  0  0  0  0  0  0  0
   -4.5069    0.4731    0.2498 C   0  0  0  0  0  0  0  0  0  0  0  0
    5.5908   -0.8359    0.1069 C   0  0  1  0  0  0  0  0  0  0  0  0
   -5.8953   -0.0218   -0.1742 C   0  0  0  0  0  0  0  0  0  0  0  0
    5.9453    0.5887   -0.3170 C   0  0  0  0  0  0  0  0  0  0  0  0
   -7.0711    0.7368    0.4414 C   0  0  0  0  0  0  0  0  0  0  0  0
    7.4145    0.8878   -0.1632 C   0  0  0  0  0  0  0  0  0  0  0  0
   -8.4136    0.1802    0.0360 C   0  0  0  0  0  0  0  0  0  0  0  0
    0.6533    0.9533   -0.2785 H   0  0  0  0  0  0  0  0  0  0  0  0
    0.5637   -0.0585    1.1603 H   0  0  0  0  0  0  0  0  0  0  0  0
   -0.9065   -1.6743   -0.0844 H   0  0  0  0  0  0  0  0  0  0  0  0
   -0.8495   -0.6178   -1.4926 H   0  0  0  0  0  0  0  0  0  0  0  0
    1.7339   -0.9006   -1.5365 H   0  0  0  0  0  0  0  0  0  0  0  0
    1.5910   -1.9551   -0.1330 H   0  0  0  0  0  0  0  0  0  0  0  0
   -1.9694    0.1418    1.2525 H   0  0  0  0  0  0  0  0  0  0  0  0
   -1.8983    1.2171   -0.1407 H   0  0  0  0  0  0  0  0  0  0  0  0
    3.2178    0.6263   -0.2424 H   0  0  0  0  0  0  0  0  0  0  0  0
    3.0668   -0.4152    1.1751 H   0  0  0  0  0  0  0  0  0  0  0  0
   -3.4730   -1.4075   -0.0148 H   0  0  0  0  0  0  0  0  0  0  0  0
   -3.3971   -0.3384   -1.4176 H   0  0  0  0  0  0  0  0  0  0  0  0
    4.0474   -2.3220   -0.1242 H   0  0  0  0  0  0  0  0  0  0  0  0
    4.2454   -1.2762   -1.5355 H   0  0  0  0  0  0  0  0  0  0  0  0
   -4.3912    1.5180   -0.0633 H   0  0  0  0  0  0  0  0  0  0  0  0
   -4.4479    0.4627    1.3452 H   0  0  0  0  0  0  0  0  0  0  0  0
    6.3534   -1.5428   -0.2403 H   0  0  0  0  0  0  0  0  0  0  0  0
   -5.9713    0.0252   -1.2683 H   0  0  0  0  0  0  0  0  0  0  0  0
   -5.9839   -1.0839    0.0889 H   0  0  0  0  0  0  0  0  0  0  0  0
    5.7000    0.7392   -1.3743 H   0  0  0  0  0  0  0  0  0  0  0  0
    5.4034    1.3182    0.2956 H   0  0  0  0  0  0  0  0  0  0  0  0
   -7.0041    0.6920    1.5341 H   0  0  0  0  0  0  0  0  0  0  0  0
   -7.0248    1.7858    0.1278 H   0  0  0  0  0  0  0  0  0  0  0  0
    5.3560   -1.7973    1.7918 H   0  0  0  0  0  0  0  0  0  0  0  0
    8.6790    2.3542   -0.3769 H   0  0  0  0  0  0  0  0  0  0  0  0
  -10.2967    0.6325    0.2543 H   0  0  0  0  0  0  0  0  0  0  0  0
  1 14  1  0  0  0  0
  1 43  1  0  0  0  0
  2 18  1  0  0  0  0
  2 44  1  0  0  0  0
  3 18  2  0  0  0  0
  4 19  1  0  0  0  0
  4 45  1  0  0  0  0
  5 19  2  0  0  0  0
  6  7  1  0  0  0  0
  6  8  1  0  0  0  0
  6 20  1  0  0  0  0
  6 21  1  0  0  0  0
  7  9  1  0  0  0  0
  7 22  1  0  0  0  0
  7 23  1  0  0  0  0
  8 10  1  0  0  0  0
  8 24  1  0  0  0  0
  8 25  1  0  0  0  0
  9 11  1  0  0  0  0
  9 26  1  0  0  0  0
  9 27  1  0  0  0  0
 10 12  1  0  0  0  0
 10 28  1  0  0  0  0
 10 29  1  0  0  0  0
 11 13  1  0  0  0  0
 11 30  1  0  0  0  0
 11 31  1  0  0  0  0
 12 14  1  0  0  0  0
 12 32  1  0  0  0  0
 12 33  1  0  0  0  0
 13 15  1  0  0  0  0
 13 34  1  0  0  0  0
 13 35  1  0  0  0  0
 14 16  1  0  0  0  0
 14 36  1  0  0  0  0
 15 17  1  0  0  0  0
 15 37  1  0  0  0  0
 15 38  1  0  0  0  0
 16 18  1  0  0  0  0
 16 39  1  0  0  0  0
 16 40  1  0  0  0  0
 17 19  1  0  0  0  0
 17 41  1  0  0  0  0
 17 42  1  0  0  0  0
M  END
> <PUBCHEM_COMPOUND_CID>
20848956

> <PUBCHEM_CONFORMER_RMSD>
1.2

> <PUBCHEM_CONFORMER_DIVERSEORDER>
1
55
50
36
66
53
5
27
31
65
12
2
4
52
60
71
8
11
46
38
16
45
7
68
15
33
64
48
40
9
49
23
26
57
41
43
10
69
54
34
32
6
35
44
39
24
42
3
22
70
37
63
61
67
30
47
58
20
19
51
56
62
14
17
29
59
25
18
13
28
21

> <PUBCHEM_MMFF94_PARTIAL_CHARGES>
13
1 -0.68
14 0.28
16 0.06
17 0.06
18 0.66
19 0.66
2 -0.65
3 -0.57
4 -0.65
43 0.4
44 0.5
45 0.5
5 -0.57

> <PUBCHEM_EFFECTIVE_ROTOR_COUNT>
13

> <PUBCHEM_PHARMACOPHORE_FEATURES>
8
1 1 acceptor
1 1 donor
1 2 acceptor
1 3 acceptor
1 4 acceptor
1 5 acceptor
3 2 3 18 anion
3 4 5 19 anion

> <PUBCHEM_HEAVY_ATOM_COUNT>
19

> <PUBCHEM_ATOM_DEF_STEREO_COUNT>
0

> <PUBCHEM_ATOM_UDEF_STEREO_COUNT>
1

> <PUBCHEM_BOND_DEF_STEREO_COUNT>
0

> <PUBCHEM_BOND_UDEF_STEREO_COUNT>
0

> <PUBCHEM_ISOTOPIC_ATOM_COUNT>
0

> <PUBCHEM_COMPONENT_COUNT>
1

> <PUBCHEM_CACTVS_TAUTO_COUNT>
1

> <PUBCHEM_CONFORMER_ID>
013E213C00000001

> <PUBCHEM_MMFF94_ENERGY>
9.3198

> <PUBCHEM_FEATURE_SELFOVERLAP>
40.713

> <PUBCHEM_SHAPE_FINGERPRINT>
10 15 18334013891298701251
10066227 49 10159712278257981908
11315181 36 18202568372432534563
11638347 137 16587738716733734938
13885169 127 10881393232534498151
14123256 10 17489870431901029280
14216079 64 9511466619626993568
14251764 18 18202561774729868767
14251764 46 13912324581504170523
14344974 52 16845286194547107016
14428016 248 17989213646652019393
14617042 71 18263086660156361628
155225 1 18412545453800810028
15690457 1 10953458544006112592
16120349 18 18334293205896624660
20621476 8 10087641490544120563
20735858 18 15068621586919144226
21095086 128 10159694686467024041
21095123 145 17346318241888723503
21130983 4 18413672409277233062
21150785 3 17632297877959688285
22224240 67 17821729437853927699
23035841 295 11314312750168075849
232437 2 18412826871776926966
23521765 1 18342176657275910311
246663 6 11887956549085489597
28498 318 10087644792635343472
33684 2 17918274238601148078
4325135 7 18202566176776097588
5283156 175 9151176454250064814
5758199 1 18343302552967257771
59521099 67 11959723881483494842
59682541 35 17749394775934222441
6438161 24 11527954422719711364
67123 10 18411982468901529343
8209 1 17846779598674354719

> <PUBCHEM_SHAPE_MULTIPOLES>
361.66
33.23
1.21
0.79
28.02
0.3
-0.13
9.93
-0.94
-1.91
0.13
-0.46
-0.08
-1.23

> <PUBCHEM_SHAPE_SELFOVERLAP>
676.32

> <PUBCHEM_SHAPE_VOLUME>
224.4

> <PUBCHEM_COORDINATE_TYPE>
2
5
10

$$$$
