115116
  -OEChem-09111619133D

 43 46  0     1  0  0  0  0  0999 V2000
   -4.6738    1.3250   -1.1890 O   0  0  0  0  0  0  0  0  0  0  0  0
   -4.6499   -1.4165   -0.1901 O   0  0  0  0  0  0  0  0  0  0  0  0
    6.1000    0.0085    0.2193 O   0  0  0  0  0  0  0  0  0  0  0  0
   -1.8009    0.5490   -0.1284 C   0  0  2  0  0  0  0  0  0  0  0  0
   -2.3750   -0.7854    0.3940 C   0  0  2  0  0  0  0  0  0  0  0  0
   -0.3174    0.6839    0.2135 C   0  0  1  0  0  0  0  0  0  0  0  0
    0.4574   -0.4612   -0.5100 C   0  0  2  0  0  0  0  0  0  0  0  0
   -1.6825   -1.9178   -0.3566 C   0  0  0  0  0  0  0  0  0  0  0  0
   -2.7941    1.6033    0.3576 C   0  0  0  0  0  0  0  0  0  0  0  0
   -0.1528   -1.8518   -0.1832 C   0  0  0  0  0  0  0  0  0  0  0  0
    0.2715    2.0289   -0.2142 C   0  0  0  0  0  0  0  0  0  0  0  0
   -3.8342   -0.5384    0.0573 C   0  0  0  0  0  0  0  0  0  0  0  0
   -4.1562    0.9493    0.0674 C   0  0  2  0  0  0  0  0  0  0  0  0
   -2.3051   -1.0043    1.9162 C   0  0  0  0  0  0  0  0  0  0  0  0
    1.9612   -0.3436   -0.2787 C   0  0  0  0  0  0  0  0  0  0  0  0
    1.7121    2.1432    0.2756 C   0  0  0  0  0  0  0  0  0  0  0  0
    2.5404    0.9020    0.0488 C   0  0  0  0  0  0  0  0  0  0  0  0
    2.8156   -1.4438   -0.4715 C   0  0  0  0  0  0  0  0  0  0  0  0
    3.9318    1.0029    0.2244 C   0  0  0  0  0  0  0  0  0  0  0  0
    4.1970   -1.3276   -0.3024 C   0  0  0  0  0  0  0  0  0  0  0  0
    4.7551   -0.1057    0.0500 C   0  0  0  0  0  0  0  0  0  0  0  0
   -1.8755    0.5591   -1.2297 H   0  0  0  0  0  0  0  0  0  0  0  0
   -0.1810    0.5934    1.2989 H   0  0  0  0  0  0  0  0  0  0  0  0
    0.3259   -0.3165   -1.5938 H   0  0  0  0  0  0  0  0  0  0  0  0
   -1.9252   -1.8651   -1.4262 H   0  0  0  0  0  0  0  0  0  0  0  0
   -2.0500   -2.8929   -0.0140 H   0  0  0  0  0  0  0  0  0  0  0  0
   -2.6768    2.5501   -0.1790 H   0  0  0  0  0  0  0  0  0  0  0  0
   -2.6686    1.7936    1.4288 H   0  0  0  0  0  0  0  0  0  0  0  0
    0.1149   -2.1391    0.8412 H   0  0  0  0  0  0  0  0  0  0  0  0
    0.2785   -2.6178   -0.8380 H   0  0  0  0  0  0  0  0  0  0  0  0
   -0.3067    2.8645    0.1956 H   0  0  0  0  0  0  0  0  0  0  0  0
    0.2395    2.1235   -1.3073 H   0  0  0  0  0  0  0  0  0  0  0  0
   -4.8763    1.1865    0.8558 H   0  0  0  0  0  0  0  0  0  0  0  0
   -2.7847   -1.9539    2.1839 H   0  0  0  0  0  0  0  0  0  0  0  0
   -1.2797   -1.0418    2.2932 H   0  0  0  0  0  0  0  0  0  0  0  0
   -2.8330   -0.2250    2.4761 H   0  0  0  0  0  0  0  0  0  0  0  0
    1.7067    2.3504    1.3535 H   0  0  0  0  0  0  0  0  0  0  0  0
    2.1834    3.0000   -0.2211 H   0  0  0  0  0  0  0  0  0  0  0  0
    2.4255   -2.4137   -0.7648 H   0  0  0  0  0  0  0  0  0  0  0  0
   -5.5375    0.8903   -1.2918 H   0  0  0  0  0  0  0  0  0  0  0  0
    4.3743    1.9585    0.4985 H   0  0  0  0  0  0  0  0  0  0  0  0
    4.8245   -2.2019   -0.4539 H   0  0  0  0  0  0  0  0  0  0  0  0
    6.5128   -0.8573    0.0580 H   0  0  0  0  0  0  0  0  0  0  0  0
  1 13  1  0  0  0  0
  1 40  1  0  0  0  0
  2 12  2  0  0  0  0
  3 21  1  0  0  0  0
  3 43  1  0  0  0  0
  4  5  1  0  0  0  0
  4  6  1  0  0  0  0
  4  9  1  0  0  0  0
  4 22  1  0  0  0  0
  5  8  1  0  0  0  0
  5 12  1  0  0  0  0
  5 14  1  0  0  0  0
  6  7  1  0  0  0  0
  6 11  1  0  0  0  0
  6 23  1  0  0  0  0
  7 10  1  0  0  0  0
  7 15  1  0  0  0  0
  7 24  1  0  0  0  0
  8 10  1  0  0  0  0
  8 25  1  0  0  0  0
  8 26  1  0  0  0  0
  9 13  1  0  0  0  0
  9 27  1  0  0  0  0
  9 28  1  0  0  0  0
 10 29  1  0  0  0  0
 10 30  1  0  0  0  0
 11 16  1  0  0  0  0
 11 31  1  0  0  0  0
 11 32  1  0  0  0  0
 12 13  1  0  0  0  0
 13 33  1  0  0  0  0
 14 34  1  0  0  0  0
 14 35  1  0  0  0  0
 14 36  1  0  0  0  0
 15 17  2  0  0  0  0
 15 18  1  0  0  0  0
 16 17  1  0  0  0  0
 16 37  1  0  0  0  0
 16 38  1  0  0  0  0
 17 19  1  0  0  0  0
 18 20  2  0  0  0  0
 18 39  1  0  0  0  0
 19 21  2  0  0  0  0
 19 41  1  0  0  0  0
 20 21  1  0  0  0  0
 20 42  1  0  0  0  0
M  END
> <PUBCHEM_COMPOUND_CID>
115116

> <PUBCHEM_CONFORMER_RMSD>
0.6

> <PUBCHEM_CONFORMER_DIVERSEORDER>
1

> <PUBCHEM_MMFF94_PARTIAL_CHARGES>
19
1 -0.68
12 0.45
13 0.34
15 -0.14
16 0.14
17 -0.14
18 -0.15
19 -0.15
2 -0.57
20 -0.15
21 0.08
3 -0.53
39 0.15
40 0.4
41 0.15
42 0.15
43 0.45
5 0.06
7 0.14

> <PUBCHEM_EFFECTIVE_ROTOR_COUNT>
1.2

> <PUBCHEM_PHARMACOPHORE_FEATURES>
8
1 1 acceptor
1 1 donor
1 2 acceptor
1 3 donor
5 4 5 9 12 13 rings
6 15 17 18 19 20 21 rings
6 4 5 6 7 8 10 rings
6 6 7 11 15 16 17 rings

> <PUBCHEM_HEAVY_ATOM_COUNT>
21

> <PUBCHEM_ATOM_DEF_STEREO_COUNT>
5

> <PUBCHEM_ATOM_UDEF_STEREO_COUNT>
0

> <PUBCHEM_BOND_DEF_STEREO_COUNT>
0

> <PUBCHEM_BOND_UDEF_STEREO_COUNT>
0

> <PUBCHEM_ISOTOPIC_ATOM_COUNT>
0

> <PUBCHEM_COMPONENT_COUNT>
1

> <PUBCHEM_CACTVS_TAUTO_COUNT>
36

> <PUBCHEM_CONFORMER_ID>
0001C1AC00000001

> <PUBCHEM_MMFF94_ENERGY>
62.8444

> <PUBCHEM_FEATURE_SELFOVERLAP>
40.697

> <PUBCHEM_SHAPE_FINGERPRINT>
10967382 1 18412827949971603494
11132069 177 18343303669563425854
11315181 36 18412827984547873240
11578080 2 16556204894420596443
12011746 2 18411697660370937668
12077114 3 18408324401746729395
12236239 1 17821446859639866134
12251169 10 18343023319746808030
12403259 226 18268987756067839777
12403259 415 18411976983912171057
12403260 363 18341893039015579957
124424 183 18333453152963118169
12507557 5 18343585152739785121
12788726 201 18263640667623570688
128620 24 11527950058135918386
13140716 1 18124886899780853715
13402501 40 18410291389272867332
13675066 3 18334298703375128842
13862211 1 18412259541236321598
14386348 63 18410295804915790474
14790565 3 17689718984470233444
14866123 147 17263577508663560170
15099037 51 18410009927260108373
15196674 1 18411982463915478548
15375358 24 18413109437764689766
15536298 74 18272371979505644814
15788980 27 18040156214488280356
15848702 151 17774450377619001038
16945 1 18195257825722444717
17349148 13 17561368395705137911
17492 89 18122062271478560058
17804303 29 18412267258912763820
1813 80 17530684308167344756
19489759 90 18040150721388613123
200 152 17703787011864930621
20028762 73 17987516073318207823
20645477 70 18343586213908099670
21029758 11 18272367551125785673
21033648 29 17774990280941280336
21267235 1 18340496633505036838
21279426 13 18192992612710031269
21421861 104 17897156928247514402
21521239 73 18129360680130374373
221490 88 18265058109466704026
23402539 116 18342731914404724180
23559900 14 18343295994288452944
26918003 58 18113618989119148042
2748010 2 18411429396671236509
296302 2 18409452483459944212
3004659 81 18187930535198094102
335352 9 18411700941620385469
34934 24 18410569570421241854
350125 39 18340210777872492433
351380 180 18411699889479952563
3545911 37 18413390938242081310
4214541 1 18411138039017105493
4921388 177 16153720867749208307
5104073 3 18412265042630206898
5283173 99 18189326892557175189
57005193 9 18341890783973035766
59755656 215 18262511499668193005
69090 78 18343863324823490983
9709674 26 18336832008288460955

> <PUBCHEM_SHAPE_MULTIPOLES>
414.56
10.12
2.13
0.9
4.95
0.21
0.26
-0.24
-0.28
-0.39
-0.1
-0.64
-0.12
0.61

> <PUBCHEM_SHAPE_SELFOVERLAP>
909.362

> <PUBCHEM_SHAPE_VOLUME>
224.3

> <PUBCHEM_COORDINATE_TYPE>
2
5
10

$$$$
